McPAT (version 1.3 of Feb, 2015) is computing the target processor...
 
XML Parsing error inside file '/home/SJ/gem5-master/0819_real/5.3GHz/lbm_5.3GHz/mcpat_input_lbm_aggressive_320.xml'.
Error: No XML data
At line 0, column 0.
