McPAT (version 1.3 of Feb, 2015) is computing the target processor...
 
XML Parsing error inside file '/home/SJ/gem5-master/0819_real/4.6GHz/gcc_4.6GHz/mcpat_input_gcc_aggressive_320.xml'.
Error: No XML data
At line 0, column 0.
