
---------- Begin Simulation Statistics ----------
sim_seconds                                  0.087108                       # Number of seconds simulated
sim_ticks                                 87108165842                       # Number of ticks simulated
final_tick                               128087216160                       # Number of ticks from beginning of simulation (restored from checkpoints and never reset)
sim_freq                                 1000000000000                       # Frequency of simulated ticks
host_inst_rate                                 133709                       # Simulator instruction rate (inst/s)
host_op_rate                                   248918                       # Simulator op (including micro ops) rate (op/s)
host_tick_rate                                4858109                       # Simulator tick rate (ticks/s)
host_mem_usage                               17334360                       # Number of bytes of host memory used
host_seconds                                 17930.47                       # Real time elapsed on the host
sim_insts                                  2397461020                       # Number of instructions simulated
sim_ops                                    4463212147                       # Number of ops (including micro ops) simulated
system.voltage_domain.voltage                       1                       # Voltage in Volts
system.clk_domain.clock                          1000                       # Clock period in ticks
system.mem_ctrls.pwrStateResidencyTicks::UNDEFINED 128087216160                       # Cumulative time (in ticks) in various power states
system.mem_ctrls.bytes_read::.switch_cpus_10.inst        22720                       # Number of bytes read from this memory
system.mem_ctrls.bytes_read::.switch_cpus_10.data        13248                       # Number of bytes read from this memory
system.mem_ctrls.bytes_read::.switch_cpus_11.inst        22336                       # Number of bytes read from this memory
system.mem_ctrls.bytes_read::.switch_cpus_11.data        13184                       # Number of bytes read from this memory
system.mem_ctrls.bytes_read::.switch_cpus_12.inst        22080                       # Number of bytes read from this memory
system.mem_ctrls.bytes_read::.switch_cpus_12.data        13120                       # Number of bytes read from this memory
system.mem_ctrls.bytes_read::.switch_cpus_13.inst        23104                       # Number of bytes read from this memory
system.mem_ctrls.bytes_read::.switch_cpus_13.data        12800                       # Number of bytes read from this memory
system.mem_ctrls.bytes_read::total             142592                       # Number of bytes read from this memory
system.mem_ctrls.bytes_inst_read::.switch_cpus_10.inst        22720                       # Number of instructions bytes read from this memory
system.mem_ctrls.bytes_inst_read::.switch_cpus_11.inst        22336                       # Number of instructions bytes read from this memory
system.mem_ctrls.bytes_inst_read::.switch_cpus_12.inst        22080                       # Number of instructions bytes read from this memory
system.mem_ctrls.bytes_inst_read::.switch_cpus_13.inst        23104                       # Number of instructions bytes read from this memory
system.mem_ctrls.bytes_inst_read::total         90240                       # Number of instructions bytes read from this memory
system.mem_ctrls.bytes_written::.writebacks       134016                       # Number of bytes written to this memory
system.mem_ctrls.bytes_written::total          134016                       # Number of bytes written to this memory
system.mem_ctrls.num_reads::.switch_cpus_10.inst          355                       # Number of read requests responded to by this memory
system.mem_ctrls.num_reads::.switch_cpus_10.data          207                       # Number of read requests responded to by this memory
system.mem_ctrls.num_reads::.switch_cpus_11.inst          349                       # Number of read requests responded to by this memory
system.mem_ctrls.num_reads::.switch_cpus_11.data          206                       # Number of read requests responded to by this memory
system.mem_ctrls.num_reads::.switch_cpus_12.inst          345                       # Number of read requests responded to by this memory
system.mem_ctrls.num_reads::.switch_cpus_12.data          205                       # Number of read requests responded to by this memory
system.mem_ctrls.num_reads::.switch_cpus_13.inst          361                       # Number of read requests responded to by this memory
system.mem_ctrls.num_reads::.switch_cpus_13.data          200                       # Number of read requests responded to by this memory
system.mem_ctrls.num_reads::total                2228                       # Number of read requests responded to by this memory
system.mem_ctrls.num_writes::.writebacks         2094                       # Number of write requests responded to by this memory
system.mem_ctrls.num_writes::total               2094                       # Number of write requests responded to by this memory
system.mem_ctrls.bw_read::.switch_cpus_10.inst       260825                       # Total read bandwidth from this memory (bytes/s)
system.mem_ctrls.bw_read::.switch_cpus_10.data       152087                       # Total read bandwidth from this memory (bytes/s)
system.mem_ctrls.bw_read::.switch_cpus_11.inst       256417                       # Total read bandwidth from this memory (bytes/s)
system.mem_ctrls.bw_read::.switch_cpus_11.data       151352                       # Total read bandwidth from this memory (bytes/s)
system.mem_ctrls.bw_read::.switch_cpus_12.inst       253478                       # Total read bandwidth from this memory (bytes/s)
system.mem_ctrls.bw_read::.switch_cpus_12.data       150617                       # Total read bandwidth from this memory (bytes/s)
system.mem_ctrls.bw_read::.switch_cpus_13.inst       265233                       # Total read bandwidth from this memory (bytes/s)
system.mem_ctrls.bw_read::.switch_cpus_13.data       146944                       # Total read bandwidth from this memory (bytes/s)
system.mem_ctrls.bw_read::total               1636953                       # Total read bandwidth from this memory (bytes/s)
system.mem_ctrls.bw_inst_read::.switch_cpus_10.inst       260825                       # Instruction read bandwidth from this memory (bytes/s)
system.mem_ctrls.bw_inst_read::.switch_cpus_11.inst       256417                       # Instruction read bandwidth from this memory (bytes/s)
system.mem_ctrls.bw_inst_read::.switch_cpus_12.inst       253478                       # Instruction read bandwidth from this memory (bytes/s)
system.mem_ctrls.bw_inst_read::.switch_cpus_13.inst       265233                       # Instruction read bandwidth from this memory (bytes/s)
system.mem_ctrls.bw_inst_read::total          1035953                       # Instruction read bandwidth from this memory (bytes/s)
system.mem_ctrls.bw_write::.writebacks        1538501                       # Write bandwidth from this memory (bytes/s)
system.mem_ctrls.bw_write::total              1538501                       # Write bandwidth from this memory (bytes/s)
system.mem_ctrls.bw_total::.writebacks        1538501                       # Total bandwidth to/from this memory (bytes/s)
system.mem_ctrls.bw_total::.switch_cpus_10.inst       260825                       # Total bandwidth to/from this memory (bytes/s)
system.mem_ctrls.bw_total::.switch_cpus_10.data       152087                       # Total bandwidth to/from this memory (bytes/s)
system.mem_ctrls.bw_total::.switch_cpus_11.inst       256417                       # Total bandwidth to/from this memory (bytes/s)
system.mem_ctrls.bw_total::.switch_cpus_11.data       151352                       # Total bandwidth to/from this memory (bytes/s)
system.mem_ctrls.bw_total::.switch_cpus_12.inst       253478                       # Total bandwidth to/from this memory (bytes/s)
system.mem_ctrls.bw_total::.switch_cpus_12.data       150617                       # Total bandwidth to/from this memory (bytes/s)
system.mem_ctrls.bw_total::.switch_cpus_13.inst       265233                       # Total bandwidth to/from this memory (bytes/s)
system.mem_ctrls.bw_total::.switch_cpus_13.data       146944                       # Total bandwidth to/from this memory (bytes/s)
system.mem_ctrls.bw_total::total              3175454                       # Total bandwidth to/from this memory (bytes/s)
system.mem_ctrls.avgPriority_.writebacks::samples      2094.00                       # Average QoS priority value for accepted requests
system.mem_ctrls.avgPriority_.switch_cpus_10.inst::samples       355.00                       # Average QoS priority value for accepted requests
system.mem_ctrls.avgPriority_.switch_cpus_10.data::samples       207.00                       # Average QoS priority value for accepted requests
system.mem_ctrls.avgPriority_.switch_cpus_11.inst::samples       349.00                       # Average QoS priority value for accepted requests
system.mem_ctrls.avgPriority_.switch_cpus_11.data::samples       206.00                       # Average QoS priority value for accepted requests
system.mem_ctrls.avgPriority_.switch_cpus_12.inst::samples       345.00                       # Average QoS priority value for accepted requests
system.mem_ctrls.avgPriority_.switch_cpus_12.data::samples       205.00                       # Average QoS priority value for accepted requests
system.mem_ctrls.avgPriority_.switch_cpus_13.inst::samples       361.00                       # Average QoS priority value for accepted requests
system.mem_ctrls.avgPriority_.switch_cpus_13.data::samples       200.00                       # Average QoS priority value for accepted requests
system.mem_ctrls.priorityMinLatency      0.000000017492                       # per QoS priority minimum request to response latency (s)
system.mem_ctrls.priorityMaxLatency      0.084911753564                       # per QoS priority maximum request to response latency (s)
system.mem_ctrls.numReadWriteTurnArounds          119                       # Number of turnarounds from READ to WRITE
system.mem_ctrls.numWriteReadTurnArounds          119                       # Number of turnarounds from WRITE to READ
system.mem_ctrls.numStayReadState                6576                       # Number of times bus staying in READ state
system.mem_ctrls.numStayWriteState               1932                       # Number of times bus staying in WRITE state
system.mem_ctrls.readReqs                        2228                       # Number of read requests accepted
system.mem_ctrls.writeReqs                       2094                       # Number of write requests accepted
system.mem_ctrls.readBursts                      2228                       # Number of DRAM read bursts, including those serviced by the write queue
system.mem_ctrls.writeBursts                     2094                       # Number of DRAM write bursts, including those merged in the write queue
system.mem_ctrls.bytesReadDRAM                 142592                       # Total number of bytes read from DRAM
system.mem_ctrls.bytesReadWrQ                       0                       # Total number of bytes read from write queue
system.mem_ctrls.bytesWritten                  130944                       # Total number of bytes written to DRAM
system.mem_ctrls.bytesReadSys                  142592                       # Total read bytes from the system interface side
system.mem_ctrls.bytesWrittenSys               134016                       # Total written bytes from the system interface side
system.mem_ctrls.servicedByWrQ                      0                       # Number of DRAM read bursts serviced by the write queue
system.mem_ctrls.mergedWrBursts                     0                       # Number of DRAM write bursts merged with an existing one
system.mem_ctrls.neitherReadNorWriteReqs            0                       # Number of requests that are neither read nor write
system.mem_ctrls.perBankRdBursts::0                85                       # Per bank write bursts
system.mem_ctrls.perBankRdBursts::1               113                       # Per bank write bursts
system.mem_ctrls.perBankRdBursts::2                53                       # Per bank write bursts
system.mem_ctrls.perBankRdBursts::3                64                       # Per bank write bursts
system.mem_ctrls.perBankRdBursts::4                61                       # Per bank write bursts
system.mem_ctrls.perBankRdBursts::5                48                       # Per bank write bursts
system.mem_ctrls.perBankRdBursts::6                93                       # Per bank write bursts
system.mem_ctrls.perBankRdBursts::7                82                       # Per bank write bursts
system.mem_ctrls.perBankRdBursts::8                56                       # Per bank write bursts
system.mem_ctrls.perBankRdBursts::9                58                       # Per bank write bursts
system.mem_ctrls.perBankRdBursts::10               60                       # Per bank write bursts
system.mem_ctrls.perBankRdBursts::11               83                       # Per bank write bursts
system.mem_ctrls.perBankRdBursts::12               61                       # Per bank write bursts
system.mem_ctrls.perBankRdBursts::13               81                       # Per bank write bursts
system.mem_ctrls.perBankRdBursts::14               73                       # Per bank write bursts
system.mem_ctrls.perBankRdBursts::15               29                       # Per bank write bursts
system.mem_ctrls.perBankRdBursts::16               39                       # Per bank write bursts
system.mem_ctrls.perBankRdBursts::17               27                       # Per bank write bursts
system.mem_ctrls.perBankRdBursts::18               41                       # Per bank write bursts
system.mem_ctrls.perBankRdBursts::19               82                       # Per bank write bursts
system.mem_ctrls.perBankRdBursts::20               29                       # Per bank write bursts
system.mem_ctrls.perBankRdBursts::21              104                       # Per bank write bursts
system.mem_ctrls.perBankRdBursts::22               90                       # Per bank write bursts
system.mem_ctrls.perBankRdBursts::23               72                       # Per bank write bursts
system.mem_ctrls.perBankRdBursts::24              119                       # Per bank write bursts
system.mem_ctrls.perBankRdBursts::25              118                       # Per bank write bursts
system.mem_ctrls.perBankRdBursts::26              117                       # Per bank write bursts
system.mem_ctrls.perBankRdBursts::27               61                       # Per bank write bursts
system.mem_ctrls.perBankRdBursts::28               63                       # Per bank write bursts
system.mem_ctrls.perBankRdBursts::29               70                       # Per bank write bursts
system.mem_ctrls.perBankRdBursts::30               45                       # Per bank write bursts
system.mem_ctrls.perBankRdBursts::31               51                       # Per bank write bursts
system.mem_ctrls.perBankWrBursts::0                87                       # Per bank write bursts
system.mem_ctrls.perBankWrBursts::1               102                       # Per bank write bursts
system.mem_ctrls.perBankWrBursts::2                45                       # Per bank write bursts
system.mem_ctrls.perBankWrBursts::3                55                       # Per bank write bursts
system.mem_ctrls.perBankWrBursts::4                55                       # Per bank write bursts
system.mem_ctrls.perBankWrBursts::5                51                       # Per bank write bursts
system.mem_ctrls.perBankWrBursts::6               101                       # Per bank write bursts
system.mem_ctrls.perBankWrBursts::7                93                       # Per bank write bursts
system.mem_ctrls.perBankWrBursts::8                47                       # Per bank write bursts
system.mem_ctrls.perBankWrBursts::9                49                       # Per bank write bursts
system.mem_ctrls.perBankWrBursts::10               59                       # Per bank write bursts
system.mem_ctrls.perBankWrBursts::11               68                       # Per bank write bursts
system.mem_ctrls.perBankWrBursts::12               44                       # Per bank write bursts
system.mem_ctrls.perBankWrBursts::13               69                       # Per bank write bursts
system.mem_ctrls.perBankWrBursts::14               65                       # Per bank write bursts
system.mem_ctrls.perBankWrBursts::15               24                       # Per bank write bursts
system.mem_ctrls.perBankWrBursts::16               37                       # Per bank write bursts
system.mem_ctrls.perBankWrBursts::17               22                       # Per bank write bursts
system.mem_ctrls.perBankWrBursts::18               39                       # Per bank write bursts
system.mem_ctrls.perBankWrBursts::19               73                       # Per bank write bursts
system.mem_ctrls.perBankWrBursts::20               32                       # Per bank write bursts
system.mem_ctrls.perBankWrBursts::21               93                       # Per bank write bursts
system.mem_ctrls.perBankWrBursts::22               82                       # Per bank write bursts
system.mem_ctrls.perBankWrBursts::23               68                       # Per bank write bursts
system.mem_ctrls.perBankWrBursts::24              127                       # Per bank write bursts
system.mem_ctrls.perBankWrBursts::25              113                       # Per bank write bursts
system.mem_ctrls.perBankWrBursts::26               98                       # Per bank write bursts
system.mem_ctrls.perBankWrBursts::27               51                       # Per bank write bursts
system.mem_ctrls.perBankWrBursts::28               68                       # Per bank write bursts
system.mem_ctrls.perBankWrBursts::29               50                       # Per bank write bursts
system.mem_ctrls.perBankWrBursts::30               36                       # Per bank write bursts
system.mem_ctrls.perBankWrBursts::31               43                       # Per bank write bursts
system.mem_ctrls.numRdRetry                         0                       # Number of times read queue was full causing retry
system.mem_ctrls.numWrRetry                         0                       # Number of times write queue was full causing retry
system.mem_ctrls.totGap                   86235324968                       # Total gap between requests
system.mem_ctrls.readPktSize::0                     0                       # Read request sizes (log2)
system.mem_ctrls.readPktSize::1                     0                       # Read request sizes (log2)
system.mem_ctrls.readPktSize::2                     0                       # Read request sizes (log2)
system.mem_ctrls.readPktSize::3                     0                       # Read request sizes (log2)
system.mem_ctrls.readPktSize::4                     0                       # Read request sizes (log2)
system.mem_ctrls.readPktSize::5                     0                       # Read request sizes (log2)
system.mem_ctrls.readPktSize::6                  2228                       # Read request sizes (log2)
system.mem_ctrls.writePktSize::0                    0                       # Write request sizes (log2)
system.mem_ctrls.writePktSize::1                    0                       # Write request sizes (log2)
system.mem_ctrls.writePktSize::2                    0                       # Write request sizes (log2)
system.mem_ctrls.writePktSize::3                    0                       # Write request sizes (log2)
system.mem_ctrls.writePktSize::4                    0                       # Write request sizes (log2)
system.mem_ctrls.writePktSize::5                    0                       # Write request sizes (log2)
system.mem_ctrls.writePktSize::6                 2094                       # Write request sizes (log2)
system.mem_ctrls.rdQLenPdf::0                    1435                       # What read queue length does an incoming req see
system.mem_ctrls.rdQLenPdf::1                     344                       # What read queue length does an incoming req see
system.mem_ctrls.rdQLenPdf::2                     143                       # What read queue length does an incoming req see
system.mem_ctrls.rdQLenPdf::3                     101                       # What read queue length does an incoming req see
system.mem_ctrls.rdQLenPdf::4                      45                       # What read queue length does an incoming req see
system.mem_ctrls.rdQLenPdf::5                      25                       # What read queue length does an incoming req see
system.mem_ctrls.rdQLenPdf::6                      24                       # What read queue length does an incoming req see
system.mem_ctrls.rdQLenPdf::7                      19                       # What read queue length does an incoming req see
system.mem_ctrls.rdQLenPdf::8                      21                       # What read queue length does an incoming req see
system.mem_ctrls.rdQLenPdf::9                      15                       # What read queue length does an incoming req see
system.mem_ctrls.rdQLenPdf::10                     11                       # What read queue length does an incoming req see
system.mem_ctrls.rdQLenPdf::11                      9                       # What read queue length does an incoming req see
system.mem_ctrls.rdQLenPdf::12                     11                       # What read queue length does an incoming req see
system.mem_ctrls.rdQLenPdf::13                     10                       # What read queue length does an incoming req see
system.mem_ctrls.rdQLenPdf::14                      6                       # What read queue length does an incoming req see
system.mem_ctrls.rdQLenPdf::15                      7                       # What read queue length does an incoming req see
system.mem_ctrls.rdQLenPdf::16                      2                       # What read queue length does an incoming req see
system.mem_ctrls.rdQLenPdf::17                      0                       # What read queue length does an incoming req see
system.mem_ctrls.rdQLenPdf::18                      0                       # What read queue length does an incoming req see
system.mem_ctrls.rdQLenPdf::19                      0                       # What read queue length does an incoming req see
system.mem_ctrls.rdQLenPdf::20                      0                       # What read queue length does an incoming req see
system.mem_ctrls.rdQLenPdf::21                      0                       # What read queue length does an incoming req see
system.mem_ctrls.rdQLenPdf::22                      0                       # What read queue length does an incoming req see
system.mem_ctrls.rdQLenPdf::23                      0                       # What read queue length does an incoming req see
system.mem_ctrls.rdQLenPdf::24                      0                       # What read queue length does an incoming req see
system.mem_ctrls.rdQLenPdf::25                      0                       # What read queue length does an incoming req see
system.mem_ctrls.rdQLenPdf::26                      0                       # What read queue length does an incoming req see
system.mem_ctrls.rdQLenPdf::27                      0                       # What read queue length does an incoming req see
system.mem_ctrls.rdQLenPdf::28                      0                       # What read queue length does an incoming req see
system.mem_ctrls.rdQLenPdf::29                      0                       # What read queue length does an incoming req see
system.mem_ctrls.rdQLenPdf::30                      0                       # What read queue length does an incoming req see
system.mem_ctrls.rdQLenPdf::31                      0                       # What read queue length does an incoming req see
system.mem_ctrls.rdQLenPdf::32                      0                       # What read queue length does an incoming req see
system.mem_ctrls.rdQLenPdf::33                      0                       # What read queue length does an incoming req see
system.mem_ctrls.rdQLenPdf::34                      0                       # What read queue length does an incoming req see
system.mem_ctrls.rdQLenPdf::35                      0                       # What read queue length does an incoming req see
system.mem_ctrls.rdQLenPdf::36                      0                       # What read queue length does an incoming req see
system.mem_ctrls.rdQLenPdf::37                      0                       # What read queue length does an incoming req see
system.mem_ctrls.rdQLenPdf::38                      0                       # What read queue length does an incoming req see
system.mem_ctrls.rdQLenPdf::39                      0                       # What read queue length does an incoming req see
system.mem_ctrls.rdQLenPdf::40                      0                       # What read queue length does an incoming req see
system.mem_ctrls.rdQLenPdf::41                      0                       # What read queue length does an incoming req see
system.mem_ctrls.rdQLenPdf::42                      0                       # What read queue length does an incoming req see
system.mem_ctrls.rdQLenPdf::43                      0                       # What read queue length does an incoming req see
system.mem_ctrls.rdQLenPdf::44                      0                       # What read queue length does an incoming req see
system.mem_ctrls.rdQLenPdf::45                      0                       # What read queue length does an incoming req see
system.mem_ctrls.rdQLenPdf::46                      0                       # What read queue length does an incoming req see
system.mem_ctrls.rdQLenPdf::47                      0                       # What read queue length does an incoming req see
system.mem_ctrls.rdQLenPdf::48                      0                       # What read queue length does an incoming req see
system.mem_ctrls.rdQLenPdf::49                      0                       # What read queue length does an incoming req see
system.mem_ctrls.rdQLenPdf::50                      0                       # What read queue length does an incoming req see
system.mem_ctrls.rdQLenPdf::51                      0                       # What read queue length does an incoming req see
system.mem_ctrls.rdQLenPdf::52                      0                       # What read queue length does an incoming req see
system.mem_ctrls.rdQLenPdf::53                      0                       # What read queue length does an incoming req see
system.mem_ctrls.rdQLenPdf::54                      0                       # What read queue length does an incoming req see
system.mem_ctrls.rdQLenPdf::55                      0                       # What read queue length does an incoming req see
system.mem_ctrls.rdQLenPdf::56                      0                       # What read queue length does an incoming req see
system.mem_ctrls.rdQLenPdf::57                      0                       # What read queue length does an incoming req see
system.mem_ctrls.rdQLenPdf::58                      0                       # What read queue length does an incoming req see
system.mem_ctrls.rdQLenPdf::59                      0                       # What read queue length does an incoming req see
system.mem_ctrls.rdQLenPdf::60                      0                       # What read queue length does an incoming req see
system.mem_ctrls.rdQLenPdf::61                      0                       # What read queue length does an incoming req see
system.mem_ctrls.rdQLenPdf::62                      0                       # What read queue length does an incoming req see
system.mem_ctrls.rdQLenPdf::63                      0                       # What read queue length does an incoming req see
system.mem_ctrls.wrQLenPdf::0                       1                       # What write queue length does an incoming req see
system.mem_ctrls.wrQLenPdf::1                       1                       # What write queue length does an incoming req see
system.mem_ctrls.wrQLenPdf::2                       1                       # What write queue length does an incoming req see
system.mem_ctrls.wrQLenPdf::3                       1                       # What write queue length does an incoming req see
system.mem_ctrls.wrQLenPdf::4                       1                       # What write queue length does an incoming req see
system.mem_ctrls.wrQLenPdf::5                       1                       # What write queue length does an incoming req see
system.mem_ctrls.wrQLenPdf::6                       1                       # What write queue length does an incoming req see
system.mem_ctrls.wrQLenPdf::7                       1                       # What write queue length does an incoming req see
system.mem_ctrls.wrQLenPdf::8                       1                       # What write queue length does an incoming req see
system.mem_ctrls.wrQLenPdf::9                       1                       # What write queue length does an incoming req see
system.mem_ctrls.wrQLenPdf::10                      1                       # What write queue length does an incoming req see
system.mem_ctrls.wrQLenPdf::11                      1                       # What write queue length does an incoming req see
system.mem_ctrls.wrQLenPdf::12                      1                       # What write queue length does an incoming req see
system.mem_ctrls.wrQLenPdf::13                      1                       # What write queue length does an incoming req see
system.mem_ctrls.wrQLenPdf::14                      1                       # What write queue length does an incoming req see
system.mem_ctrls.wrQLenPdf::15                      1                       # What write queue length does an incoming req see
system.mem_ctrls.wrQLenPdf::16                      1                       # What write queue length does an incoming req see
system.mem_ctrls.wrQLenPdf::17                      1                       # What write queue length does an incoming req see
system.mem_ctrls.wrQLenPdf::18                      1                       # What write queue length does an incoming req see
system.mem_ctrls.wrQLenPdf::19                      1                       # What write queue length does an incoming req see
system.mem_ctrls.wrQLenPdf::20                      1                       # What write queue length does an incoming req see
system.mem_ctrls.wrQLenPdf::21                      1                       # What write queue length does an incoming req see
system.mem_ctrls.wrQLenPdf::22                      1                       # What write queue length does an incoming req see
system.mem_ctrls.wrQLenPdf::23                      1                       # What write queue length does an incoming req see
system.mem_ctrls.wrQLenPdf::24                      1                       # What write queue length does an incoming req see
system.mem_ctrls.wrQLenPdf::25                      1                       # What write queue length does an incoming req see
system.mem_ctrls.wrQLenPdf::26                      1                       # What write queue length does an incoming req see
system.mem_ctrls.wrQLenPdf::27                      1                       # What write queue length does an incoming req see
system.mem_ctrls.wrQLenPdf::28                      1                       # What write queue length does an incoming req see
system.mem_ctrls.wrQLenPdf::29                      1                       # What write queue length does an incoming req see
system.mem_ctrls.wrQLenPdf::30                      1                       # What write queue length does an incoming req see
system.mem_ctrls.wrQLenPdf::31                      1                       # What write queue length does an incoming req see
system.mem_ctrls.wrQLenPdf::32                      1                       # What write queue length does an incoming req see
system.mem_ctrls.wrQLenPdf::33                      1                       # What write queue length does an incoming req see
system.mem_ctrls.wrQLenPdf::34                      1                       # What write queue length does an incoming req see
system.mem_ctrls.wrQLenPdf::35                      1                       # What write queue length does an incoming req see
system.mem_ctrls.wrQLenPdf::36                      1                       # What write queue length does an incoming req see
system.mem_ctrls.wrQLenPdf::37                      1                       # What write queue length does an incoming req see
system.mem_ctrls.wrQLenPdf::38                      1                       # What write queue length does an incoming req see
system.mem_ctrls.wrQLenPdf::39                      1                       # What write queue length does an incoming req see
system.mem_ctrls.wrQLenPdf::40                      1                       # What write queue length does an incoming req see
system.mem_ctrls.wrQLenPdf::41                      1                       # What write queue length does an incoming req see
system.mem_ctrls.wrQLenPdf::42                      1                       # What write queue length does an incoming req see
system.mem_ctrls.wrQLenPdf::43                      1                       # What write queue length does an incoming req see
system.mem_ctrls.wrQLenPdf::44                      1                       # What write queue length does an incoming req see
system.mem_ctrls.wrQLenPdf::45                      1                       # What write queue length does an incoming req see
system.mem_ctrls.wrQLenPdf::46                      1                       # What write queue length does an incoming req see
system.mem_ctrls.wrQLenPdf::47                     62                       # What write queue length does an incoming req see
system.mem_ctrls.wrQLenPdf::48                     63                       # What write queue length does an incoming req see
system.mem_ctrls.wrQLenPdf::49                     83                       # What write queue length does an incoming req see
system.mem_ctrls.wrQLenPdf::50                     91                       # What write queue length does an incoming req see
system.mem_ctrls.wrQLenPdf::51                    101                       # What write queue length does an incoming req see
system.mem_ctrls.wrQLenPdf::52                    114                       # What write queue length does an incoming req see
system.mem_ctrls.wrQLenPdf::53                    119                       # What write queue length does an incoming req see
system.mem_ctrls.wrQLenPdf::54                    117                       # What write queue length does an incoming req see
system.mem_ctrls.wrQLenPdf::55                    117                       # What write queue length does an incoming req see
system.mem_ctrls.wrQLenPdf::56                    118                       # What write queue length does an incoming req see
system.mem_ctrls.wrQLenPdf::57                    126                       # What write queue length does an incoming req see
system.mem_ctrls.wrQLenPdf::58                    136                       # What write queue length does an incoming req see
system.mem_ctrls.wrQLenPdf::59                    140                       # What write queue length does an incoming req see
system.mem_ctrls.wrQLenPdf::60                    138                       # What write queue length does an incoming req see
system.mem_ctrls.wrQLenPdf::61                    132                       # What write queue length does an incoming req see
system.mem_ctrls.wrQLenPdf::62                    122                       # What write queue length does an incoming req see
system.mem_ctrls.wrQLenPdf::63                    121                       # What write queue length does an incoming req see
system.mem_ctrls.wrQLenPdf::64                    125                       # What write queue length does an incoming req see
system.mem_ctrls.wrQLenPdf::65                     10                       # What write queue length does an incoming req see
system.mem_ctrls.wrQLenPdf::66                      2                       # What write queue length does an incoming req see
system.mem_ctrls.wrQLenPdf::67                      2                       # What write queue length does an incoming req see
system.mem_ctrls.wrQLenPdf::68                      3                       # What write queue length does an incoming req see
system.mem_ctrls.wrQLenPdf::69                      4                       # What write queue length does an incoming req see
system.mem_ctrls.wrQLenPdf::70                      1                       # What write queue length does an incoming req see
system.mem_ctrls.wrQLenPdf::71                      0                       # What write queue length does an incoming req see
system.mem_ctrls.wrQLenPdf::72                      0                       # What write queue length does an incoming req see
system.mem_ctrls.wrQLenPdf::73                      0                       # What write queue length does an incoming req see
system.mem_ctrls.wrQLenPdf::74                      0                       # What write queue length does an incoming req see
system.mem_ctrls.wrQLenPdf::75                      0                       # What write queue length does an incoming req see
system.mem_ctrls.wrQLenPdf::76                      0                       # What write queue length does an incoming req see
system.mem_ctrls.wrQLenPdf::77                      0                       # What write queue length does an incoming req see
system.mem_ctrls.wrQLenPdf::78                      0                       # What write queue length does an incoming req see
system.mem_ctrls.wrQLenPdf::79                      0                       # What write queue length does an incoming req see
system.mem_ctrls.wrQLenPdf::80                      0                       # What write queue length does an incoming req see
system.mem_ctrls.wrQLenPdf::81                      0                       # What write queue length does an incoming req see
system.mem_ctrls.wrQLenPdf::82                      0                       # What write queue length does an incoming req see
system.mem_ctrls.wrQLenPdf::83                      0                       # What write queue length does an incoming req see
system.mem_ctrls.wrQLenPdf::84                      0                       # What write queue length does an incoming req see
system.mem_ctrls.wrQLenPdf::85                      0                       # What write queue length does an incoming req see
system.mem_ctrls.wrQLenPdf::86                      0                       # What write queue length does an incoming req see
system.mem_ctrls.wrQLenPdf::87                      0                       # What write queue length does an incoming req see
system.mem_ctrls.wrQLenPdf::88                      0                       # What write queue length does an incoming req see
system.mem_ctrls.wrQLenPdf::89                      0                       # What write queue length does an incoming req see
system.mem_ctrls.wrQLenPdf::90                      0                       # What write queue length does an incoming req see
system.mem_ctrls.wrQLenPdf::91                      0                       # What write queue length does an incoming req see
system.mem_ctrls.wrQLenPdf::92                      0                       # What write queue length does an incoming req see
system.mem_ctrls.wrQLenPdf::93                      0                       # What write queue length does an incoming req see
system.mem_ctrls.wrQLenPdf::94                      0                       # What write queue length does an incoming req see
system.mem_ctrls.wrQLenPdf::95                      0                       # What write queue length does an incoming req see
system.mem_ctrls.wrQLenPdf::96                      0                       # What write queue length does an incoming req see
system.mem_ctrls.wrQLenPdf::97                      0                       # What write queue length does an incoming req see
system.mem_ctrls.wrQLenPdf::98                      0                       # What write queue length does an incoming req see
system.mem_ctrls.wrQLenPdf::99                      0                       # What write queue length does an incoming req see
system.mem_ctrls.wrQLenPdf::100                     0                       # What write queue length does an incoming req see
system.mem_ctrls.wrQLenPdf::101                     0                       # What write queue length does an incoming req see
system.mem_ctrls.wrQLenPdf::102                     0                       # What write queue length does an incoming req see
system.mem_ctrls.wrQLenPdf::103                     0                       # What write queue length does an incoming req see
system.mem_ctrls.wrQLenPdf::104                     0                       # What write queue length does an incoming req see
system.mem_ctrls.wrQLenPdf::105                     0                       # What write queue length does an incoming req see
system.mem_ctrls.wrQLenPdf::106                     0                       # What write queue length does an incoming req see
system.mem_ctrls.wrQLenPdf::107                     0                       # What write queue length does an incoming req see
system.mem_ctrls.wrQLenPdf::108                     0                       # What write queue length does an incoming req see
system.mem_ctrls.wrQLenPdf::109                     0                       # What write queue length does an incoming req see
system.mem_ctrls.wrQLenPdf::110                     0                       # What write queue length does an incoming req see
system.mem_ctrls.wrQLenPdf::111                     0                       # What write queue length does an incoming req see
system.mem_ctrls.wrQLenPdf::112                     0                       # What write queue length does an incoming req see
system.mem_ctrls.wrQLenPdf::113                     0                       # What write queue length does an incoming req see
system.mem_ctrls.wrQLenPdf::114                     0                       # What write queue length does an incoming req see
system.mem_ctrls.wrQLenPdf::115                     0                       # What write queue length does an incoming req see
system.mem_ctrls.wrQLenPdf::116                     0                       # What write queue length does an incoming req see
system.mem_ctrls.wrQLenPdf::117                     0                       # What write queue length does an incoming req see
system.mem_ctrls.wrQLenPdf::118                     0                       # What write queue length does an incoming req see
system.mem_ctrls.wrQLenPdf::119                     0                       # What write queue length does an incoming req see
system.mem_ctrls.wrQLenPdf::120                     0                       # What write queue length does an incoming req see
system.mem_ctrls.wrQLenPdf::121                     0                       # What write queue length does an incoming req see
system.mem_ctrls.wrQLenPdf::122                     0                       # What write queue length does an incoming req see
system.mem_ctrls.wrQLenPdf::123                     0                       # What write queue length does an incoming req see
system.mem_ctrls.wrQLenPdf::124                     0                       # What write queue length does an incoming req see
system.mem_ctrls.wrQLenPdf::125                     0                       # What write queue length does an incoming req see
system.mem_ctrls.wrQLenPdf::126                     0                       # What write queue length does an incoming req see
system.mem_ctrls.wrQLenPdf::127                     0                       # What write queue length does an incoming req see
system.mem_ctrls.bytesPerActivate::samples         2887                       # Bytes accessed per row activation
system.mem_ctrls.bytesPerActivate::mean     94.747489                       # Bytes accessed per row activation
system.mem_ctrls.bytesPerActivate::gmean    80.139362                       # Bytes accessed per row activation
system.mem_ctrls.bytesPerActivate::stdev    85.863723                       # Bytes accessed per row activation
system.mem_ctrls.bytesPerActivate::0-127         2254     78.07%     78.07% # Bytes accessed per row activation
system.mem_ctrls.bytesPerActivate::128-255          466     16.14%     94.22% # Bytes accessed per row activation
system.mem_ctrls.bytesPerActivate::256-383           97      3.36%     97.58% # Bytes accessed per row activation
system.mem_ctrls.bytesPerActivate::384-511           38      1.32%     98.89% # Bytes accessed per row activation
system.mem_ctrls.bytesPerActivate::512-639           18      0.62%     99.52% # Bytes accessed per row activation
system.mem_ctrls.bytesPerActivate::640-767            7      0.24%     99.76% # Bytes accessed per row activation
system.mem_ctrls.bytesPerActivate::768-895            3      0.10%     99.86% # Bytes accessed per row activation
system.mem_ctrls.bytesPerActivate::896-1023            1      0.03%     99.90% # Bytes accessed per row activation
system.mem_ctrls.bytesPerActivate::1024-1151            3      0.10%    100.00% # Bytes accessed per row activation
system.mem_ctrls.bytesPerActivate::total         2887                       # Bytes accessed per row activation
system.mem_ctrls.rdPerTurnAround::samples          119                       # Reads before turning the bus around for writes
system.mem_ctrls.rdPerTurnAround::mean      18.714286                       # Reads before turning the bus around for writes
system.mem_ctrls.rdPerTurnAround::gmean     17.586276                       # Reads before turning the bus around for writes
system.mem_ctrls.rdPerTurnAround::stdev      7.526386                       # Reads before turning the bus around for writes
system.mem_ctrls.rdPerTurnAround::2-3               1      0.84%      0.84% # Reads before turning the bus around for writes
system.mem_ctrls.rdPerTurnAround::6-7               2      1.68%      2.52% # Reads before turning the bus around for writes
system.mem_ctrls.rdPerTurnAround::8-9               3      2.52%      5.04% # Reads before turning the bus around for writes
system.mem_ctrls.rdPerTurnAround::10-11             6      5.04%     10.08% # Reads before turning the bus around for writes
system.mem_ctrls.rdPerTurnAround::12-13             6      5.04%     15.13% # Reads before turning the bus around for writes
system.mem_ctrls.rdPerTurnAround::14-15            10      8.40%     23.53% # Reads before turning the bus around for writes
system.mem_ctrls.rdPerTurnAround::16-17            21     17.65%     41.18% # Reads before turning the bus around for writes
system.mem_ctrls.rdPerTurnAround::18-19            23     19.33%     60.50% # Reads before turning the bus around for writes
system.mem_ctrls.rdPerTurnAround::20-21            20     16.81%     77.31% # Reads before turning the bus around for writes
system.mem_ctrls.rdPerTurnAround::22-23            12     10.08%     87.39% # Reads before turning the bus around for writes
system.mem_ctrls.rdPerTurnAround::24-25             8      6.72%     94.12% # Reads before turning the bus around for writes
system.mem_ctrls.rdPerTurnAround::26-27             3      2.52%     96.64% # Reads before turning the bus around for writes
system.mem_ctrls.rdPerTurnAround::28-29             1      0.84%     97.48% # Reads before turning the bus around for writes
system.mem_ctrls.rdPerTurnAround::32-33             2      1.68%     99.16% # Reads before turning the bus around for writes
system.mem_ctrls.rdPerTurnAround::80-81             1      0.84%    100.00% # Reads before turning the bus around for writes
system.mem_ctrls.rdPerTurnAround::total           119                       # Reads before turning the bus around for writes
system.mem_ctrls.wrPerTurnAround::samples          119                       # Writes before turning the bus around for reads
system.mem_ctrls.wrPerTurnAround::mean      17.193277                       # Writes before turning the bus around for reads
system.mem_ctrls.wrPerTurnAround::gmean     17.150635                       # Writes before turning the bus around for reads
system.mem_ctrls.wrPerTurnAround::stdev      1.230112                       # Writes before turning the bus around for reads
system.mem_ctrls.wrPerTurnAround::16               55     46.22%     46.22% # Writes before turning the bus around for reads
system.mem_ctrls.wrPerTurnAround::17                3      2.52%     48.74% # Writes before turning the bus around for reads
system.mem_ctrls.wrPerTurnAround::18               50     42.02%     90.76% # Writes before turning the bus around for reads
system.mem_ctrls.wrPerTurnAround::19                7      5.88%     96.64% # Writes before turning the bus around for reads
system.mem_ctrls.wrPerTurnAround::20                2      1.68%     98.32% # Writes before turning the bus around for reads
system.mem_ctrls.wrPerTurnAround::21                2      1.68%    100.00% # Writes before turning the bus around for reads
system.mem_ctrls.wrPerTurnAround::total           119                       # Writes before turning the bus around for reads
system.mem_ctrls.masterReadBytes::.switch_cpus_10.inst        22720                       # Per-master bytes read from memory
system.mem_ctrls.masterReadBytes::.switch_cpus_10.data        13248                       # Per-master bytes read from memory
system.mem_ctrls.masterReadBytes::.switch_cpus_11.inst        22336                       # Per-master bytes read from memory
system.mem_ctrls.masterReadBytes::.switch_cpus_11.data        13184                       # Per-master bytes read from memory
system.mem_ctrls.masterReadBytes::.switch_cpus_12.inst        22080                       # Per-master bytes read from memory
system.mem_ctrls.masterReadBytes::.switch_cpus_12.data        13120                       # Per-master bytes read from memory
system.mem_ctrls.masterReadBytes::.switch_cpus_13.inst        23104                       # Per-master bytes read from memory
system.mem_ctrls.masterReadBytes::.switch_cpus_13.data        12800                       # Per-master bytes read from memory
system.mem_ctrls.masterWriteBytes::.writebacks       130944                       # Per-master bytes write to memory
system.mem_ctrls.masterReadRate::.switch_cpus_10.inst 260825.145155855687                       # Per-master bytes read from memory rate (Bytes/sec)
system.mem_ctrls.masterReadRate::.switch_cpus_10.data 152086.774781020067                       # Per-master bytes read from memory rate (Bytes/sec)
system.mem_ctrls.masterReadRate::.switch_cpus_11.inst 256416.832843362354                       # Per-master bytes read from memory rate (Bytes/sec)
system.mem_ctrls.masterReadRate::.switch_cpus_11.data 151352.056062271178                       # Per-master bytes read from memory rate (Bytes/sec)
system.mem_ctrls.masterReadRate::.switch_cpus_12.inst 253477.957968366798                       # Per-master bytes read from memory rate (Bytes/sec)
system.mem_ctrls.masterReadRate::.switch_cpus_12.data 150617.337343522289                       # Per-master bytes read from memory rate (Bytes/sec)
system.mem_ctrls.masterReadRate::.switch_cpus_13.inst 265233.457468349021                       # Per-master bytes read from memory rate (Bytes/sec)
system.mem_ctrls.masterReadRate::.switch_cpus_13.data 146943.743749777845                       # Per-master bytes read from memory rate (Bytes/sec)
system.mem_ctrls.masterWriteRate::.writebacks 1503234.498560227454                       # Per-master bytes write to memory rate (Bytes/sec)
system.mem_ctrls.masterReadAccesses::.switch_cpus_10.inst          355                       # Per-master read serviced memory accesses
system.mem_ctrls.masterReadAccesses::.switch_cpus_10.data          207                       # Per-master read serviced memory accesses
system.mem_ctrls.masterReadAccesses::.switch_cpus_11.inst          349                       # Per-master read serviced memory accesses
system.mem_ctrls.masterReadAccesses::.switch_cpus_11.data          206                       # Per-master read serviced memory accesses
system.mem_ctrls.masterReadAccesses::.switch_cpus_12.inst          345                       # Per-master read serviced memory accesses
system.mem_ctrls.masterReadAccesses::.switch_cpus_12.data          205                       # Per-master read serviced memory accesses
system.mem_ctrls.masterReadAccesses::.switch_cpus_13.inst          361                       # Per-master read serviced memory accesses
system.mem_ctrls.masterReadAccesses::.switch_cpus_13.data          200                       # Per-master read serviced memory accesses
system.mem_ctrls.masterWriteAccesses::.writebacks         2094                       # Per-master write serviced memory accesses
system.mem_ctrls.masterReadTotalLat::.switch_cpus_10.inst     47810918                       # Per-master read total memory access latency
system.mem_ctrls.masterReadTotalLat::.switch_cpus_10.data     17209523                       # Per-master read total memory access latency
system.mem_ctrls.masterReadTotalLat::.switch_cpus_11.inst     45222657                       # Per-master read total memory access latency
system.mem_ctrls.masterReadTotalLat::.switch_cpus_11.data     22678354                       # Per-master read total memory access latency
system.mem_ctrls.masterReadTotalLat::.switch_cpus_12.inst     48466023                       # Per-master read total memory access latency
system.mem_ctrls.masterReadTotalLat::.switch_cpus_12.data     19690145                       # Per-master read total memory access latency
system.mem_ctrls.masterReadTotalLat::.switch_cpus_13.inst     49980431                       # Per-master read total memory access latency
system.mem_ctrls.masterReadTotalLat::.switch_cpus_13.data     16660216                       # Per-master read total memory access latency
system.mem_ctrls.masterWriteTotalLat::.writebacks 3419192734539                       # Per-master write total memory access latency
system.mem_ctrls.masterReadAvgLat::.switch_cpus_10.inst    134678.64                       # Per-master read average memory access latency
system.mem_ctrls.masterReadAvgLat::.switch_cpus_10.data     83137.79                       # Per-master read average memory access latency
system.mem_ctrls.masterReadAvgLat::.switch_cpus_11.inst    129577.81                       # Per-master read average memory access latency
system.mem_ctrls.masterReadAvgLat::.switch_cpus_11.data    110089.10                       # Per-master read average memory access latency
system.mem_ctrls.masterReadAvgLat::.switch_cpus_12.inst    140481.23                       # Per-master read average memory access latency
system.mem_ctrls.masterReadAvgLat::.switch_cpus_12.data     96049.49                       # Per-master read average memory access latency
system.mem_ctrls.masterReadAvgLat::.switch_cpus_13.inst    138449.95                       # Per-master read average memory access latency
system.mem_ctrls.masterReadAvgLat::.switch_cpus_13.data     83301.08                       # Per-master read average memory access latency
system.mem_ctrls.masterWriteAvgLat::.writebacks 1632852308.76                       # Per-master write average memory access latency
system.mem_ctrls.totQLat                    228746091                       # Total ticks spent queuing
system.mem_ctrls.totMemAccLat               267718267                       # Total ticks spent from burst creation until serviced by the DRAM
system.mem_ctrls.totBusLat                    7423696                       # Total ticks spent in databus transfers
system.mem_ctrls.avgQLat                    102668.80                       # Average queueing delay per DRAM burst
system.mem_ctrls.avgBusLat                    3332.00                       # Average bus latency per DRAM burst
system.mem_ctrls.avgMemAccLat               120160.80                       # Average memory access latency per DRAM burst
system.mem_ctrls.avgRdBW                         1.64                       # Average DRAM read bandwidth in MiByte/s
system.mem_ctrls.avgWrBW                         1.50                       # Average achieved write bandwidth in MiByte/s
system.mem_ctrls.avgRdBWSys                      1.64                       # Average system read bandwidth in MiByte/s
system.mem_ctrls.avgWrBWSys                      1.54                       # Average system write bandwidth in MiByte/s
system.mem_ctrls.peakBW                      19207.00                       # Theoretical peak bandwidth in MiByte/s
system.mem_ctrls.busUtil                         0.02                       # Data bus utilization in percentage
system.mem_ctrls.busUtilRead                     0.01                       # Data bus utilization in percentage for reads
system.mem_ctrls.busUtilWrite                    0.01                       # Data bus utilization in percentage for writes
system.mem_ctrls.avgRdQLen                       1.03                       # Average read queue length when enqueuing
system.mem_ctrls.avgWrQLen                      56.54                       # Average write queue length when enqueuing
system.mem_ctrls.readRowHits                      929                       # Number of row buffer hits during reads
system.mem_ctrls.writeRowHits                     458                       # Number of row buffer hits during writes
system.mem_ctrls.readRowHitRate                 41.70                       # Row buffer hit rate for reads
system.mem_ctrls.writeRowHitRate                21.87                       # Row buffer hit rate for writes
system.mem_ctrls.avgGap                   19952643.44                       # Average gap between requests
system.mem_ctrls.pageHitRate                    32.09                       # Row buffer hit rate, read and write combined
system.mem_ctrls_0.actEnergy             2381167.152000                       # Energy for activate commands per rank (pJ)
system.mem_ctrls_0.preEnergy             4203675.856800                       # Energy for precharge commands per rank (pJ)
system.mem_ctrls_0.readEnergy            3017192.640000                       # Energy for read commands per rank (pJ)
system.mem_ctrls_0.writeEnergy           2392082.784000                       # Energy for write commands per rank (pJ)
system.mem_ctrls_0.refreshEnergy         226411609.116001                       # Energy for refresh commands per rank (pJ)
system.mem_ctrls_0.actBackEnergy         127305223.533600                       # Energy for active background per rank (pJ)
system.mem_ctrls_0.preBackEnergy         17672656.108800                       # Energy for precharge background per rank (pJ)
system.mem_ctrls_0.actPowerDownEnergy    437290221.916800                       # Energy for active power-down per rank (pJ)
system.mem_ctrls_0.prePowerDownEnergy    265647698.399999                       # Energy for precharge power-down per rank (pJ)
system.mem_ctrls_0.selfRefreshEnergy     24396555864.643200                       # Energy for self refresh per rank (pJ)
system.mem_ctrls_0.totalEnergy           25482877392.151196                       # Total energy per rank (pJ)
system.mem_ctrls_0.averagePower            292.542922                       # Core power per rank (mW)
system.mem_ctrls_0.totalIdleTime          85927088878                       # Total Idle time Per DRAM Rank
system.mem_ctrls_0.memoryStateTime::IDLE     46615774                       # Time in different power states
system.mem_ctrls_0.memoryStateTime::REF     117250000                       # Time in different power states
system.mem_ctrls_0.memoryStateTime::SREF  84446792497                       # Time in different power states
system.mem_ctrls_0.memoryStateTime::PRE_PDN   1106862049                       # Time in different power states
system.mem_ctrls_0.memoryStateTime::ACT     159525814                       # Time in different power states
system.mem_ctrls_0.memoryStateTime::ACT_PDN   1231120603                       # Time in different power states
system.mem_ctrls_1.actEnergy             2120751.360000                       # Energy for activate commands per rank (pJ)
system.mem_ctrls_1.preEnergy             3743941.824000                       # Energy for precharge commands per rank (pJ)
system.mem_ctrls_1.readEnergy            3093993.907200                       # Energy for read commands per rank (pJ)
system.mem_ctrls_1.writeEnergy           2434545.792000                       # Energy for write commands per rank (pJ)
system.mem_ctrls_1.refreshEnergy         202080809.330401                       # Energy for refresh commands per rank (pJ)
system.mem_ctrls_1.actBackEnergy         118181470.495200                       # Energy for active background per rank (pJ)
system.mem_ctrls_1.preBackEnergy         15260165.491200                       # Energy for precharge background per rank (pJ)
system.mem_ctrls_1.actPowerDownEnergy    387113732.544000                       # Energy for active power-down per rank (pJ)
system.mem_ctrls_1.prePowerDownEnergy    237159698.159999                       # Energy for precharge power-down per rank (pJ)
system.mem_ctrls_1.selfRefreshEnergy     24469913693.769604                       # Energy for self refresh per rank (pJ)
system.mem_ctrls_1.totalEnergy           25441482838.598400                       # Total energy per rank (pJ)
system.mem_ctrls_1.averagePower            292.067714                       # Core power per rank (mW)
system.mem_ctrls_1.totalIdleTime          84093018206                       # Total Idle time Per DRAM Rank
system.mem_ctrls_1.memoryStateTime::IDLE     40897215                       # Time in different power states
system.mem_ctrls_1.memoryStateTime::REF     104650000                       # Time in different power states
system.mem_ctrls_1.memoryStateTime::SREF  84732618737                       # Time in different power states
system.mem_ctrls_1.memoryStateTime::PRE_PDN    988168602                       # Time in different power states
system.mem_ctrls_1.memoryStateTime::ACT     151970560                       # Time in different power states
system.mem_ctrls_1.memoryStateTime::ACT_PDN   1089861623                       # Time in different power states
system.pwrStateResidencyTicks::UNDEFINED 128087216160                       # Cumulative time (in ticks) in various power states
system.cpu_voltage_domain.voltage                   1                       # Voltage in Volts
system.cpu_clk_domain.clock                       179                       # Clock period in ticks
system.cpu0.dtb.walker.pwrStateResidencyTicks::UNDEFINED 128087216160                       # Cumulative time (in ticks) in various power states
system.cpu0.dtb.rdAccesses                          0                       # TLB accesses on read requests
system.cpu0.dtb.wrAccesses                          0                       # TLB accesses on write requests
system.cpu0.dtb.rdMisses                            0                       # TLB misses on read requests
system.cpu0.dtb.wrMisses                            0                       # TLB misses on write requests
system.cpu0.apic_clk_domain.clock                2864                       # Clock period in ticks
system.cpu0.interrupts.pwrStateResidencyTicks::UNDEFINED 128087216160                       # Cumulative time (in ticks) in various power states
system.cpu0.itb.walker.pwrStateResidencyTicks::UNDEFINED 128087216160                       # Cumulative time (in ticks) in various power states
system.cpu0.itb.rdAccesses                          0                       # TLB accesses on read requests
system.cpu0.itb.wrAccesses                          0                       # TLB accesses on write requests
system.cpu0.itb.rdMisses                            0                       # TLB misses on read requests
system.cpu0.itb.wrMisses                            0                       # TLB misses on write requests
system.cpu0.workload.numSyscalls                   21                       # Number of system calls
system.cpu0.pwrStateResidencyTicks::OFF   87108166737                       # Cumulative time (in ticks) in various power states
system.cpu0.numCycles                               0                       # number of cpu cycles simulated
system.cpu0.numWorkItemsStarted                     0                       # number of work items this cpu started
system.cpu0.numWorkItemsCompleted                   0                       # number of work items this cpu completed
system.cpu0.committedInsts                          0                       # Number of instructions committed
system.cpu0.committedOps                            0                       # Number of ops (including micro ops) committed
system.cpu0.num_int_alu_accesses                    0                       # Number of integer alu accesses
system.cpu0.num_fp_alu_accesses                     0                       # Number of float alu accesses
system.cpu0.num_vec_alu_accesses                    0                       # Number of vector alu accesses
system.cpu0.num_func_calls                          0                       # number of times a function call or return occured
system.cpu0.num_conditional_control_insts            0                       # number of instructions that are conditional controls
system.cpu0.num_int_insts                           0                       # number of integer instructions
system.cpu0.num_fp_insts                            0                       # number of float instructions
system.cpu0.num_vec_insts                           0                       # number of vector instructions
system.cpu0.num_int_register_reads                  0                       # number of times the integer registers were read
system.cpu0.num_int_register_writes                 0                       # number of times the integer registers were written
system.cpu0.num_fp_register_reads                   0                       # number of times the floating registers were read
system.cpu0.num_fp_register_writes                  0                       # number of times the floating registers were written
system.cpu0.num_vec_register_reads                  0                       # number of times the vector registers were read
system.cpu0.num_vec_register_writes                 0                       # number of times the vector registers were written
system.cpu0.num_mem_refs                            0                       # number of memory refs
system.cpu0.num_load_insts                          0                       # Number of load instructions
system.cpu0.num_store_insts                         0                       # Number of store instructions
system.cpu0.num_idle_cycles                         0                       # Number of idle cycles
system.cpu0.num_busy_cycles                         0                       # Number of busy cycles
system.cpu0.not_idle_fraction                       1                       # Percentage of non-idle cycles
system.cpu0.idle_fraction                           0                       # Percentage of idle cycles
system.cpu0.op_class::No_OpClass                    0                       # Class of executed instruction
system.cpu0.op_class::IntAlu                        0                       # Class of executed instruction
system.cpu0.op_class::IntMult                       0                       # Class of executed instruction
system.cpu0.op_class::IntDiv                        0                       # Class of executed instruction
system.cpu0.op_class::FloatAdd                      0                       # Class of executed instruction
system.cpu0.op_class::FloatCmp                      0                       # Class of executed instruction
system.cpu0.op_class::FloatCvt                      0                       # Class of executed instruction
system.cpu0.op_class::FloatMult                     0                       # Class of executed instruction
system.cpu0.op_class::FloatMultAcc                  0                       # Class of executed instruction
system.cpu0.op_class::FloatDiv                      0                       # Class of executed instruction
system.cpu0.op_class::FloatMisc                     0                       # Class of executed instruction
system.cpu0.op_class::FloatSqrt                     0                       # Class of executed instruction
system.cpu0.op_class::SimdAdd                       0                       # Class of executed instruction
system.cpu0.op_class::SimdAddAcc                    0                       # Class of executed instruction
system.cpu0.op_class::SimdAlu                       0                       # Class of executed instruction
system.cpu0.op_class::SimdCmp                       0                       # Class of executed instruction
system.cpu0.op_class::SimdCvt                       0                       # Class of executed instruction
system.cpu0.op_class::SimdMisc                      0                       # Class of executed instruction
system.cpu0.op_class::SimdMult                      0                       # Class of executed instruction
system.cpu0.op_class::SimdMultAcc                   0                       # Class of executed instruction
system.cpu0.op_class::SimdShift                     0                       # Class of executed instruction
system.cpu0.op_class::SimdShiftAcc                  0                       # Class of executed instruction
system.cpu0.op_class::SimdSqrt                      0                       # Class of executed instruction
system.cpu0.op_class::SimdFloatAdd                  0                       # Class of executed instruction
system.cpu0.op_class::SimdFloatAlu                  0                       # Class of executed instruction
system.cpu0.op_class::SimdFloatCmp                  0                       # Class of executed instruction
system.cpu0.op_class::SimdFloatCvt                  0                       # Class of executed instruction
system.cpu0.op_class::SimdFloatDiv                  0                       # Class of executed instruction
system.cpu0.op_class::SimdFloatMisc                 0                       # Class of executed instruction
system.cpu0.op_class::SimdFloatMult                 0                       # Class of executed instruction
system.cpu0.op_class::SimdFloatMultAcc              0                       # Class of executed instruction
system.cpu0.op_class::SimdFloatSqrt                 0                       # Class of executed instruction
system.cpu0.op_class::SimdAes                       0                       # Class of executed instruction
system.cpu0.op_class::SimdAesMix                    0                       # Class of executed instruction
system.cpu0.op_class::SimdSha1Hash                  0                       # Class of executed instruction
system.cpu0.op_class::SimdSha1Hash2                 0                       # Class of executed instruction
system.cpu0.op_class::SimdSha256Hash                0                       # Class of executed instruction
system.cpu0.op_class::SimdSha256Hash2               0                       # Class of executed instruction
system.cpu0.op_class::SimdShaSigma2                 0                       # Class of executed instruction
system.cpu0.op_class::SimdShaSigma3                 0                       # Class of executed instruction
system.cpu0.op_class::MemRead                       0                       # Class of executed instruction
system.cpu0.op_class::MemWrite                      0                       # Class of executed instruction
system.cpu0.op_class::FloatMemRead                  0                       # Class of executed instruction
system.cpu0.op_class::FloatMemWrite                 0                       # Class of executed instruction
system.cpu0.op_class::IprAccess                     0                       # Class of executed instruction
system.cpu0.op_class::InstPrefetch                  0                       # Class of executed instruction
system.cpu0.op_class::total                         0                       # Class of executed instruction
system.cpu0.dcache.tags.pwrStateResidencyTicks::UNDEFINED 128087216160                       # Cumulative time (in ticks) in various power states
system.cpu0.dcache.tags.tagsinuse                2048                       # Cycle average of tags in use
system.cpu0.dcache.tags.total_refs          266898966                       # Total number of references to valid blocks.
system.cpu0.dcache.tags.sampled_refs             4514                       # Sample count of references to valid blocks.
system.cpu0.dcache.tags.avg_refs         59126.930882                       # Average number of references to valid blocks.
system.cpu0.dcache.tags.warmup_cycle                0                       # Cycle when the warmup percentage was hit.
system.cpu0.dcache.tags.occ_blocks::.cpu0.data  1244.199424                       # Average occupied blocks per requestor
system.cpu0.dcache.tags.occ_blocks::.switch_cpus_10.data   803.800576                       # Average occupied blocks per requestor
system.cpu0.dcache.tags.occ_percent::.cpu0.data     0.607519                       # Average percentage of cache occupancy
system.cpu0.dcache.tags.occ_percent::.switch_cpus_10.data     0.392481                       # Average percentage of cache occupancy
system.cpu0.dcache.tags.occ_percent::total            1                       # Average percentage of cache occupancy
system.cpu0.dcache.tags.occ_task_id_blocks::1024         2048                       # Occupied blocks per task id
system.cpu0.dcache.tags.age_task_id_blocks_1024::1            1                       # Occupied blocks per task id
system.cpu0.dcache.tags.age_task_id_blocks_1024::2            6                       # Occupied blocks per task id
system.cpu0.dcache.tags.age_task_id_blocks_1024::3           81                       # Occupied blocks per task id
system.cpu0.dcache.tags.age_task_id_blocks_1024::4         1960                       # Occupied blocks per task id
system.cpu0.dcache.tags.occ_task_id_percent::1024            1                       # Percentage of cache occupancy per task id
system.cpu0.dcache.tags.tag_accesses       1970856098                       # Number of tag accesses
system.cpu0.dcache.tags.data_accesses      1970856098                       # Number of data accesses
system.cpu0.dcache.pwrStateResidencyTicks::UNDEFINED 128087216160                       # Cumulative time (in ticks) in various power states
system.cpu0.dcache.ReadReq_hits::.switch_cpus_10.data    173190308                       # number of ReadReq hits
system.cpu0.dcache.ReadReq_hits::total      173190308                       # number of ReadReq hits
system.cpu0.dcache.WriteReq_hits::.switch_cpus_10.data     73118938                       # number of WriteReq hits
system.cpu0.dcache.WriteReq_hits::total      73118938                       # number of WriteReq hits
system.cpu0.dcache.demand_hits::.switch_cpus_10.data    246309246                       # number of demand (read+write) hits
system.cpu0.dcache.demand_hits::total       246309246                       # number of demand (read+write) hits
system.cpu0.dcache.overall_hits::.switch_cpus_10.data    246309246                       # number of overall hits
system.cpu0.dcache.overall_hits::total      246309246                       # number of overall hits
system.cpu0.dcache.ReadReq_misses::.switch_cpus_10.data        12143                       # number of ReadReq misses
system.cpu0.dcache.ReadReq_misses::total        12143                       # number of ReadReq misses
system.cpu0.dcache.WriteReq_misses::.switch_cpus_10.data        35315                       # number of WriteReq misses
system.cpu0.dcache.WriteReq_misses::total        35315                       # number of WriteReq misses
system.cpu0.dcache.demand_misses::.switch_cpus_10.data        47458                       # number of demand (read+write) misses
system.cpu0.dcache.demand_misses::total         47458                       # number of demand (read+write) misses
system.cpu0.dcache.overall_misses::.switch_cpus_10.data        47458                       # number of overall misses
system.cpu0.dcache.overall_misses::total        47458                       # number of overall misses
system.cpu0.dcache.ReadReq_miss_latency::.switch_cpus_10.data     79322955                       # number of ReadReq miss cycles
system.cpu0.dcache.ReadReq_miss_latency::total     79322955                       # number of ReadReq miss cycles
system.cpu0.dcache.WriteReq_miss_latency::.switch_cpus_10.data    341748411                       # number of WriteReq miss cycles
system.cpu0.dcache.WriteReq_miss_latency::total    341748411                       # number of WriteReq miss cycles
system.cpu0.dcache.demand_miss_latency::.switch_cpus_10.data    421071366                       # number of demand (read+write) miss cycles
system.cpu0.dcache.demand_miss_latency::total    421071366                       # number of demand (read+write) miss cycles
system.cpu0.dcache.overall_miss_latency::.switch_cpus_10.data    421071366                       # number of overall miss cycles
system.cpu0.dcache.overall_miss_latency::total    421071366                       # number of overall miss cycles
system.cpu0.dcache.ReadReq_accesses::.switch_cpus_10.data    173202451                       # number of ReadReq accesses(hits+misses)
system.cpu0.dcache.ReadReq_accesses::total    173202451                       # number of ReadReq accesses(hits+misses)
system.cpu0.dcache.WriteReq_accesses::.switch_cpus_10.data     73154253                       # number of WriteReq accesses(hits+misses)
system.cpu0.dcache.WriteReq_accesses::total     73154253                       # number of WriteReq accesses(hits+misses)
system.cpu0.dcache.demand_accesses::.switch_cpus_10.data    246356704                       # number of demand (read+write) accesses
system.cpu0.dcache.demand_accesses::total    246356704                       # number of demand (read+write) accesses
system.cpu0.dcache.overall_accesses::.switch_cpus_10.data    246356704                       # number of overall (read+write) accesses
system.cpu0.dcache.overall_accesses::total    246356704                       # number of overall (read+write) accesses
system.cpu0.dcache.ReadReq_miss_rate::.switch_cpus_10.data     0.000070                       # miss rate for ReadReq accesses
system.cpu0.dcache.ReadReq_miss_rate::total     0.000070                       # miss rate for ReadReq accesses
[...]
system.switch_cpus_13.iew.memOrderViolationEvents        43726                       # Number of memory order violations
system.switch_cpus_13.iew.predictedTakenIncorrect      4025130                       # Number of branches that were predicted taken incorrectly
system.switch_cpus_13.iew.predictedNotTakenIncorrect      6881485                       # Number of branches that were predicted not taken incorrectly
system.switch_cpus_13.iew.branchMispredicts     10906615                       # Number of branch mispredicts detected at execute
system.switch_cpus_13.iew.iewExecutedInsts   1032929111                       # Number of executed instructions
system.switch_cpus_13.iew.iewExecLoadInsts    195896875                       # Number of load instructions executed
system.switch_cpus_13.iew.iewExecSquashedInsts     16321103                       # Number of squashed instructions skipped in execute
system.switch_cpus_13.iew.exec_swp                  0                       # number of swp insts executed
system.switch_cpus_13.iew.exec_nop                  0                       # number of nop insts executed
system.switch_cpus_13.iew.exec_refs         276485119                       # number of memory reference insts executed
system.switch_cpus_13.iew.exec_branches      93168875                       # Number of branches executed
system.switch_cpus_13.iew.exec_stores        80588244                       # Number of stores executed
system.switch_cpus_13.iew.exec_rate          2.122583                       # Inst execution rate
system.switch_cpus_13.iew.wb_sent          1021870155                       # cumulative count of insts sent to commit
system.switch_cpus_13.iew.wb_count         1019121987                       # cumulative count of insts written-back
system.switch_cpus_13.iew.wb_producers      693538780                       # num instructions producing a value
system.switch_cpus_13.iew.wb_consumers     1101082624                       # num instructions consuming a value
system.switch_cpus_13.iew.wb_rate            2.094211                       # insts written-back per cycle
system.switch_cpus_13.iew.wb_fanout          0.629870                       # average fanout of values written-back
system.switch_cpus_13.commit.commitSquashedInsts    186839243                       # The number of squashed insts skipped by commit
system.switch_cpus_13.commit.commitNonSpecStalls           51                       # The number of times commit has been forced to stall to communicate backwards
system.switch_cpus_13.commit.branchMispredicts      9397259                       # The number of times a branch was mispredicted
system.switch_cpus_13.commit.committed_per_cycle::samples    457583631                       # Number of insts commited each cycle
system.switch_cpus_13.commit.committed_per_cycle::mean     2.004917                       # Number of insts commited each cycle
system.switch_cpus_13.commit.committed_per_cycle::stdev     2.442737                       # Number of insts commited each cycle
system.switch_cpus_13.commit.committed_per_cycle::underflows            0      0.00%      0.00% # Number of insts commited each cycle
system.switch_cpus_13.commit.committed_per_cycle::0    193582796     42.31%     42.31% # Number of insts commited each cycle
system.switch_cpus_13.commit.committed_per_cycle::1     66630798     14.56%     56.87% # Number of insts commited each cycle
system.switch_cpus_13.commit.committed_per_cycle::2     32795170      7.17%     64.03% # Number of insts commited each cycle
system.switch_cpus_13.commit.committed_per_cycle::3     66381581     14.51%     78.54% # Number of insts commited each cycle
system.switch_cpus_13.commit.committed_per_cycle::4     30504027      6.67%     85.21% # Number of insts commited each cycle
system.switch_cpus_13.commit.committed_per_cycle::5     15147569      3.31%     88.52% # Number of insts commited each cycle
system.switch_cpus_13.commit.committed_per_cycle::6     12803417      2.80%     91.32% # Number of insts commited each cycle
system.switch_cpus_13.commit.committed_per_cycle::7      6429368      1.41%     92.72% # Number of insts commited each cycle
system.switch_cpus_13.commit.committed_per_cycle::8     33308905      7.28%    100.00% # Number of insts commited each cycle
system.switch_cpus_13.commit.committed_per_cycle::overflows            0      0.00%    100.00% # Number of insts commited each cycle
system.switch_cpus_13.commit.committed_per_cycle::min_value            0                       # Number of insts commited each cycle
system.switch_cpus_13.commit.committed_per_cycle::max_value            8                       # Number of insts commited each cycle
system.switch_cpus_13.commit.committed_per_cycle::total    457583631                       # Number of insts commited each cycle
system.switch_cpus_13.commit.committedInsts    499031245                       # Number of instructions committed
system.switch_cpus_13.commit.committedOps    917417152                       # Number of ops (including micro ops) committed
system.switch_cpus_13.commit.swp_count              0                       # Number of s/w prefetches committed
system.switch_cpus_13.commit.refs           246766622                       # Number of memory references committed
system.switch_cpus_13.commit.loads          173649710                       # Number of loads committed
system.switch_cpus_13.commit.membars               20                       # Number of memory barriers committed
system.switch_cpus_13.commit.branches        87210841                       # Number of branches committed
system.switch_cpus_13.commit.vec_insts              0                       # Number of committed Vector instructions.
system.switch_cpus_13.commit.fp_insts       188846406                       # Number of committed floating point instructions.
system.switch_cpus_13.commit.int_insts      802077012                       # Number of committed integer instructions.
system.switch_cpus_13.commit.function_calls     14559651                       # Number of function calls committed.
system.switch_cpus_13.commit.op_class_0::No_OpClass      4116965      0.45%      0.45% # Class of committed instruction
system.switch_cpus_13.commit.op_class_0::IntAlu    571541180     62.30%     62.75% # Class of committed instruction
system.switch_cpus_13.commit.op_class_0::IntMult       328159      0.04%     62.78% # Class of committed instruction
system.switch_cpus_13.commit.op_class_0::IntDiv          392      0.00%     62.78% # Class of committed instruction
system.switch_cpus_13.commit.op_class_0::FloatAdd      6174661      0.67%     63.46% # Class of committed instruction
system.switch_cpus_13.commit.op_class_0::FloatCmp            0      0.00%     63.46% # Class of committed instruction
system.switch_cpus_13.commit.op_class_0::FloatCvt            0      0.00%     63.46% # Class of committed instruction
system.switch_cpus_13.commit.op_class_0::FloatMult            0      0.00%     63.46% # Class of committed instruction
system.switch_cpus_13.commit.op_class_0::FloatMultAcc            0      0.00%     63.46% # Class of committed instruction
system.switch_cpus_13.commit.op_class_0::FloatDiv            0      0.00%     63.46% # Class of committed instruction
system.switch_cpus_13.commit.op_class_0::FloatMisc            0      0.00%     63.46% # Class of committed instruction
system.switch_cpus_13.commit.op_class_0::FloatSqrt            0      0.00%     63.46% # Class of committed instruction
system.switch_cpus_13.commit.op_class_0::SimdAdd            0      0.00%     63.46% # Class of committed instruction
system.switch_cpus_13.commit.op_class_0::SimdAddAcc            0      0.00%     63.46% # Class of committed instruction
system.switch_cpus_13.commit.op_class_0::SimdAlu      7652366      0.83%     64.29% # Class of committed instruction
system.switch_cpus_13.commit.op_class_0::SimdCmp          324      0.00%     64.29% # Class of committed instruction
system.switch_cpus_13.commit.op_class_0::SimdCvt         2386      0.00%     64.29% # Class of committed instruction
system.switch_cpus_13.commit.op_class_0::SimdMisc       543741      0.06%     64.35% # Class of committed instruction
system.switch_cpus_13.commit.op_class_0::SimdMult            0      0.00%     64.35% # Class of committed instruction
system.switch_cpus_13.commit.op_class_0::SimdMultAcc            0      0.00%     64.35% # Class of committed instruction
system.switch_cpus_13.commit.op_class_0::SimdShift            0      0.00%     64.35% # Class of committed instruction
system.switch_cpus_13.commit.op_class_0::SimdShiftAcc            0      0.00%     64.35% # Class of committed instruction
system.switch_cpus_13.commit.op_class_0::SimdSqrt            0      0.00%     64.35% # Class of committed instruction
system.switch_cpus_13.commit.op_class_0::SimdFloatAdd     31047602      3.38%     67.73% # Class of committed instruction
system.switch_cpus_13.commit.op_class_0::SimdFloatAlu            0      0.00%     67.73% # Class of committed instruction
system.switch_cpus_13.commit.op_class_0::SimdFloatCmp        95648      0.01%     67.74% # Class of committed instruction
system.switch_cpus_13.commit.op_class_0::SimdFloatCvt     17213545      1.88%     69.62% # Class of committed instruction
system.switch_cpus_13.commit.op_class_0::SimdFloatDiv      1153196      0.13%     69.75% # Class of committed instruction
system.switch_cpus_13.commit.op_class_0::SimdFloatMisc            0      0.00%     69.75% # Class of committed instruction
system.switch_cpus_13.commit.op_class_0::SimdFloatMult     30715200      3.35%     73.09% # Class of committed instruction
system.switch_cpus_13.commit.op_class_0::SimdFloatMultAcc            0      0.00%     73.09% # Class of committed instruction
system.switch_cpus_13.commit.op_class_0::SimdFloatSqrt        65165      0.01%     73.10% # Class of committed instruction
system.switch_cpus_13.commit.op_class_0::SimdAes            0      0.00%     73.10% # Class of committed instruction
system.switch_cpus_13.commit.op_class_0::SimdAesMix            0      0.00%     73.10% # Class of committed instruction
system.switch_cpus_13.commit.op_class_0::SimdSha1Hash            0      0.00%     73.10% # Class of committed instruction
system.switch_cpus_13.commit.op_class_0::SimdSha1Hash2            0      0.00%     73.10% # Class of committed instruction
system.switch_cpus_13.commit.op_class_0::SimdSha256Hash            0      0.00%     73.10% # Class of committed instruction
system.switch_cpus_13.commit.op_class_0::SimdSha256Hash2            0      0.00%     73.10% # Class of committed instruction
system.switch_cpus_13.commit.op_class_0::SimdShaSigma2            0      0.00%     73.10% # Class of committed instruction
system.switch_cpus_13.commit.op_class_0::SimdShaSigma3            0      0.00%     73.10% # Class of committed instruction
system.switch_cpus_13.commit.op_class_0::MemRead    107655356     11.73%     84.84% # Class of committed instruction
system.switch_cpus_13.commit.op_class_0::MemWrite     61782897      6.73%     91.57% # Class of committed instruction
system.switch_cpus_13.commit.op_class_0::FloatMemRead     65994354      7.19%     98.76% # Class of committed instruction
system.switch_cpus_13.commit.op_class_0::FloatMemWrite     11334015      1.24%    100.00% # Class of committed instruction
system.switch_cpus_13.commit.op_class_0::IprAccess            0      0.00%    100.00% # Class of committed instruction
system.switch_cpus_13.commit.op_class_0::InstPrefetch            0      0.00%    100.00% # Class of committed instruction
system.switch_cpus_13.commit.op_class_0::total    917417152                       # Class of committed instruction
system.switch_cpus_13.commit.bw_lim_events     33308905                       # number cycles where commit BW limit reached
system.switch_cpus_13.rob.rob_reads        1528531121                       # The number of ROB reads
system.switch_cpus_13.rob.rob_writes       2237740249                       # The number of ROB writes
system.switch_cpus_13.timesIdled                   71                       # Number of times that the entire CPU went into an idle state and unscheduled itself
system.switch_cpus_13.idleCycles                18038                       # Total number of cycles that the CPU has spent unscheduled due to idling
system.switch_cpus_13.committedInsts        499031245                       # Number of Instructions Simulated
system.switch_cpus_13.committedOps          917417152                       # Number of Ops (including micro ops) Simulated
system.switch_cpus_13.cpi                    0.975165                       # CPI: Cycles Per Instruction
system.switch_cpus_13.cpi_total              0.975165                       # CPI: Total CPI of All Threads
system.switch_cpus_13.ipc                    1.025467                       # IPC: Instructions Per Cycle
system.switch_cpus_13.ipc_total              1.025467                       # IPC: Total IPC of All Threads
system.switch_cpus_13.int_regfile_reads    1422615333                       # number of integer regfile reads
system.switch_cpus_13.int_regfile_writes    657836263                       # number of integer regfile writes
system.switch_cpus_13.fp_regfile_reads      293526540                       # number of floating regfile reads
system.switch_cpus_13.fp_regfile_writes     173493815                       # number of floating regfile writes
system.switch_cpus_13.cc_regfile_reads      368580073                       # number of cc regfile reads
system.switch_cpus_13.cc_regfile_writes     190724207                       # number of cc regfile writes
system.switch_cpus_13.misc_regfile_reads    477567964                       # number of misc regfile reads
system.tol3bus.snoop_filter.tot_requests        25005                       # Total number of requests made to the snoop filter.
system.tol3bus.snoop_filter.hit_single_requests        21941                       # Number of requests hitting in the snoop filter with a single holder of the requested data.
system.tol3bus.snoop_filter.hit_multi_requests            0                       # Number of requests hitting in the snoop filter with multiple (>1) holders of the requested data.
system.tol3bus.snoop_filter.tot_snoops            758                       # Total number of snoops made to the snoop filter.
system.tol3bus.snoop_filter.hit_single_snoops          758                       # Number of snoops hitting in the snoop filter with a single holder of the requested data.
system.tol3bus.snoop_filter.hit_multi_snoops            0                       # Number of snoops hitting in the snoop filter with multiple (>1) holders of the requested data.
system.tol3bus.pwrStateResidencyTicks::UNDEFINED 128087216160                       # Cumulative time (in ticks) in various power states
system.tol3bus.trans_dist::ReadResp              1821                       # Transaction distribution
system.tol3bus.trans_dist::WritebackDirty         5464                       # Transaction distribution
system.tol3bus.trans_dist::CleanEvict            1572                       # Transaction distribution
system.tol3bus.trans_dist::UpgradeReq           17826                       # Transaction distribution
system.tol3bus.trans_dist::UpgradeResp          17826                       # Transaction distribution
system.tol3bus.trans_dist::ReadExReq             1254                       # Transaction distribution
system.tol3bus.trans_dist::ReadExResp            1254                       # Transaction distribution
system.tol3bus.trans_dist::ReadSharedReq         1821                       # Transaction distribution
system.tol3bus.pkt_count_system.cpu0.l2cache.mem_side::system.l3.cpu_side        38052                       # Packet count per connected master and slave (bytes)
system.tol3bus.pkt_count_system.cpu1.l2cache.mem_side::system.l3.cpu_side         2663                       # Packet count per connected master and slave (bytes)
system.tol3bus.pkt_count_system.cpu2.l2cache.mem_side::system.l3.cpu_side         2563                       # Packet count per connected master and slave (bytes)
system.tol3bus.pkt_count_system.cpu3.l2cache.mem_side::system.l3.cpu_side         2628                       # Packet count per connected master and slave (bytes)
system.tol3bus.pkt_count::total                 45906                       # Packet count per connected master and slave (bytes)
system.tol3bus.pkt_size_system.cpu0.l2cache.mem_side::system.l3.cpu_side        99072                       # Cumulative packet size per connected master and slave (bytes)
system.tol3bus.pkt_size_system.cpu1.l2cache.mem_side::system.l3.cpu_side       104256                       # Cumulative packet size per connected master and slave (bytes)
system.tol3bus.pkt_size_system.cpu2.l2cache.mem_side::system.l3.cpu_side       104320                       # Cumulative packet size per connected master and slave (bytes)
system.tol3bus.pkt_size_system.cpu3.l2cache.mem_side::system.l3.cpu_side       104832                       # Cumulative packet size per connected master and slave (bytes)
system.tol3bus.pkt_size::total                 412480                       # Cumulative packet size per connected master and slave (bytes)
system.tol3bus.snoops                            2932                       # Total snoops (count)
system.tol3bus.snoopTraffic                    134016                       # Total snoop traffic (bytes)
system.tol3bus.snoop_fanout::samples            23833                       # Request fanout histogram
system.tol3bus.snoop_fanout::mean            0.031805                       # Request fanout histogram
system.tol3bus.snoop_fanout::stdev           0.175483                       # Request fanout histogram
system.tol3bus.snoop_fanout::underflows             0      0.00%      0.00% # Request fanout histogram
system.tol3bus.snoop_fanout::0                  23075     96.82%     96.82% # Request fanout histogram
system.tol3bus.snoop_fanout::1                    758      3.18%    100.00% # Request fanout histogram
system.tol3bus.snoop_fanout::2                      0      0.00%    100.00% # Request fanout histogram
system.tol3bus.snoop_fanout::3                      0      0.00%    100.00% # Request fanout histogram
system.tol3bus.snoop_fanout::4                      0      0.00%    100.00% # Request fanout histogram
system.tol3bus.snoop_fanout::overflows              0      0.00%    100.00% # Request fanout histogram
system.tol3bus.snoop_fanout::min_value              0                       # Request fanout histogram
system.tol3bus.snoop_fanout::max_value              1                       # Request fanout histogram
system.tol3bus.snoop_fanout::total              23833                       # Request fanout histogram
system.tol3bus.reqLayer0.occupancy            5682372                       # Layer occupancy (ticks)
system.tol3bus.reqLayer0.utilization              0.0                       # Layer utilization (%)
system.tol3bus.respLayer0.occupancy           3576224                       # Layer occupancy (ticks)
system.tol3bus.respLayer0.utilization             0.0                       # Layer utilization (%)
system.tol3bus.respLayer1.occupancy            436581                       # Layer occupancy (ticks)
system.tol3bus.respLayer1.utilization             0.0                       # Layer utilization (%)
system.tol3bus.respLayer2.occupancy            411342                       # Layer occupancy (ticks)
system.tol3bus.respLayer2.utilization             0.0                       # Layer utilization (%)
system.tol3bus.respLayer3.occupancy            421008                       # Layer occupancy (ticks)
system.tol3bus.respLayer3.utilization             0.0                       # Layer utilization (%)

---------- End Simulation Statistics   ----------
