
---------- Begin Simulation Statistics ----------
sim_seconds                                  0.000001                       # Number of seconds simulated
sim_ticks                                      775890                       # Number of ticks simulated
final_tick                                     775890                       # Number of ticks from beginning of simulation (restored from checkpoints and never reset)
sim_freq                                 1000000000000                       # Frequency of simulated ticks
host_inst_rate                                  12420                       # Simulator instruction rate (inst/s)
host_op_rate                                    22506                       # Simulator op (including micro ops) rate (op/s)
host_tick_rate                               51489680                       # Simulator tick rate (ticks/s)
host_mem_usage                               16963744                       # Number of bytes of host memory used
host_seconds                                     0.02                       # Real time elapsed on the host
sim_insts                                         187                       # Number of instructions simulated
sim_ops                                           339                       # Number of ops (including micro ops) simulated
system.voltage_domain.voltage                       1                       # Voltage in Volts
system.clk_domain.clock                          1000                       # Clock period in ticks
system.mem_ctrls0.pwrStateResidencyTicks::UNDEFINED       775890                       # Cumulative time (in ticks) in various power states
system.mem_ctrls0.bytes_read::.cpu0.inst          320                       # Number of bytes read from this memory
system.mem_ctrls0.bytes_read::.cpu0.data          192                       # Number of bytes read from this memory
system.mem_ctrls0.bytes_read::.cpu1.inst          256                       # Number of bytes read from this memory
system.mem_ctrls0.bytes_read::.cpu1.data          128                       # Number of bytes read from this memory
system.mem_ctrls0.bytes_read::.cpu2.inst          320                       # Number of bytes read from this memory
system.mem_ctrls0.bytes_read::.cpu2.data          256                       # Number of bytes read from this memory
system.mem_ctrls0.bytes_read::.cpu3.inst          320                       # Number of bytes read from this memory
system.mem_ctrls0.bytes_read::.cpu3.data          320                       # Number of bytes read from this memory
system.mem_ctrls0.bytes_read::total              2112                       # Number of bytes read from this memory
system.mem_ctrls0.bytes_inst_read::.cpu0.inst          320                       # Number of instructions bytes read from this memory
system.mem_ctrls0.bytes_inst_read::.cpu1.inst          256                       # Number of instructions bytes read from this memory
system.mem_ctrls0.bytes_inst_read::.cpu2.inst          320                       # Number of instructions bytes read from this memory
system.mem_ctrls0.bytes_inst_read::.cpu3.inst          320                       # Number of instructions bytes read from this memory
system.mem_ctrls0.bytes_inst_read::total         1216                       # Number of instructions bytes read from this memory
system.mem_ctrls0.num_reads::.cpu0.inst             5                       # Number of read requests responded to by this memory
system.mem_ctrls0.num_reads::.cpu0.data             3                       # Number of read requests responded to by this memory
system.mem_ctrls0.num_reads::.cpu1.inst             4                       # Number of read requests responded to by this memory
system.mem_ctrls0.num_reads::.cpu1.data             2                       # Number of read requests responded to by this memory
system.mem_ctrls0.num_reads::.cpu2.inst             5                       # Number of read requests responded to by this memory
system.mem_ctrls0.num_reads::.cpu2.data             4                       # Number of read requests responded to by this memory
system.mem_ctrls0.num_reads::.cpu3.inst             5                       # Number of read requests responded to by this memory
system.mem_ctrls0.num_reads::.cpu3.data             5                       # Number of read requests responded to by this memory
system.mem_ctrls0.num_reads::total                 33                       # Number of read requests responded to by this memory
system.mem_ctrls0.bw_read::.cpu0.inst       412429597                       # Total read bandwidth from this memory (bytes/s)
system.mem_ctrls0.bw_read::.cpu0.data       247457758                       # Total read bandwidth from this memory (bytes/s)
system.mem_ctrls0.bw_read::.cpu1.inst       329943678                       # Total read bandwidth from this memory (bytes/s)
system.mem_ctrls0.bw_read::.cpu1.data       164971839                       # Total read bandwidth from this memory (bytes/s)
system.mem_ctrls0.bw_read::.cpu2.inst       412429597                       # Total read bandwidth from this memory (bytes/s)
system.mem_ctrls0.bw_read::.cpu2.data       329943678                       # Total read bandwidth from this memory (bytes/s)
system.mem_ctrls0.bw_read::.cpu3.inst       412429597                       # Total read bandwidth from this memory (bytes/s)
system.mem_ctrls0.bw_read::.cpu3.data       412429597                       # Total read bandwidth from this memory (bytes/s)
system.mem_ctrls0.bw_read::total           2722035340                       # Total read bandwidth from this memory (bytes/s)
system.mem_ctrls0.bw_inst_read::.cpu0.inst    412429597                       # Instruction read bandwidth from this memory (bytes/s)
system.mem_ctrls0.bw_inst_read::.cpu1.inst    329943678                       # Instruction read bandwidth from this memory (bytes/s)
system.mem_ctrls0.bw_inst_read::.cpu2.inst    412429597                       # Instruction read bandwidth from this memory (bytes/s)
system.mem_ctrls0.bw_inst_read::.cpu3.inst    412429597                       # Instruction read bandwidth from this memory (bytes/s)
system.mem_ctrls0.bw_inst_read::total      1567232469                       # Instruction read bandwidth from this memory (bytes/s)
system.mem_ctrls0.bw_total::.cpu0.inst      412429597                       # Total bandwidth to/from this memory (bytes/s)
system.mem_ctrls0.bw_total::.cpu0.data      247457758                       # Total bandwidth to/from this memory (bytes/s)
system.mem_ctrls0.bw_total::.cpu1.inst      329943678                       # Total bandwidth to/from this memory (bytes/s)
system.mem_ctrls0.bw_total::.cpu1.data      164971839                       # Total bandwidth to/from this memory (bytes/s)
system.mem_ctrls0.bw_total::.cpu2.inst      412429597                       # Total bandwidth to/from this memory (bytes/s)
system.mem_ctrls0.bw_total::.cpu2.data      329943678                       # Total bandwidth to/from this memory (bytes/s)
system.mem_ctrls0.bw_total::.cpu3.inst      412429597                       # Total bandwidth to/from this memory (bytes/s)
system.mem_ctrls0.bw_total::.cpu3.data      412429597                       # Total bandwidth to/from this memory (bytes/s)
system.mem_ctrls0.bw_total::total          2722035340                       # Total bandwidth to/from this memory (bytes/s)
system.mem_ctrls0.avgPriority_.cpu0.inst::samples         5.00                       # Average QoS priority value for accepted requests
system.mem_ctrls0.avgPriority_.cpu0.data::samples         4.00                       # Average QoS priority value for accepted requests
system.mem_ctrls0.avgPriority_.cpu1.inst::samples         4.00                       # Average QoS priority value for accepted requests
system.mem_ctrls0.avgPriority_.cpu1.data::samples         5.00                       # Average QoS priority value for accepted requests
system.mem_ctrls0.avgPriority_.cpu2.inst::samples         6.00                       # Average QoS priority value for accepted requests
system.mem_ctrls0.avgPriority_.cpu2.data::samples         5.00                       # Average QoS priority value for accepted requests
system.mem_ctrls0.avgPriority_.cpu3.inst::samples         5.00                       # Average QoS priority value for accepted requests
system.mem_ctrls0.avgPriority_.cpu3.data::samples         5.00                       # Average QoS priority value for accepted requests
system.mem_ctrls0.priorityMinLatency     0.000000017860                       # per QoS priority minimum request to response latency (s)
system.mem_ctrls0.priorityMaxLatency     0.000000052640                       # per QoS priority maximum request to response latency (s)
system.mem_ctrls0.numReadWriteTurnArounds            0                       # Number of turnarounds from READ to WRITE
system.mem_ctrls0.numWriteReadTurnArounds            0                       # Number of turnarounds from WRITE to READ
system.mem_ctrls0.numStayReadState                 78                       # Number of times bus staying in READ state
system.mem_ctrls0.numStayWriteState                 0                       # Number of times bus staying in WRITE state
system.mem_ctrls0.readReqs                         39                       # Number of read requests accepted
system.mem_ctrls0.writeReqs                         0                       # Number of write requests accepted
system.mem_ctrls0.readBursts                       39                       # Number of DRAM read bursts, including those serviced by the write queue
system.mem_ctrls0.writeBursts                       0                       # Number of DRAM write bursts, including those merged in the write queue
system.mem_ctrls0.bytesReadDRAM                  2496                       # Total number of bytes read from DRAM
system.mem_ctrls0.bytesReadWrQ                      0                       # Total number of bytes read from write queue
system.mem_ctrls0.bytesWritten                      0                       # Total number of bytes written to DRAM
system.mem_ctrls0.bytesReadSys                   2496                       # Total read bytes from the system interface side
system.mem_ctrls0.bytesWrittenSys                   0                       # Total written bytes from the system interface side
system.mem_ctrls0.servicedByWrQ                     0                       # Number of DRAM read bursts serviced by the write queue
system.mem_ctrls0.mergedWrBursts                    0                       # Number of DRAM write bursts merged with an existing one
system.mem_ctrls0.neitherReadNorWriteReqs            0                       # Number of requests that are neither read nor write
system.mem_ctrls0.perBankRdBursts::0                4                       # Per bank write bursts
system.mem_ctrls0.perBankRdBursts::1                0                       # Per bank write bursts
system.mem_ctrls0.perBankRdBursts::2                0                       # Per bank write bursts
system.mem_ctrls0.perBankRdBursts::3                3                       # Per bank write bursts
system.mem_ctrls0.perBankRdBursts::4                3                       # Per bank write bursts
system.mem_ctrls0.perBankRdBursts::5                0                       # Per bank write bursts
system.mem_ctrls0.perBankRdBursts::6                1                       # Per bank write bursts
system.mem_ctrls0.perBankRdBursts::7                0                       # Per bank write bursts
system.mem_ctrls0.perBankRdBursts::8                0                       # Per bank write bursts
system.mem_ctrls0.perBankRdBursts::9                1                       # Per bank write bursts
system.mem_ctrls0.perBankRdBursts::10               3                       # Per bank write bursts
system.mem_ctrls0.perBankRdBursts::11               3                       # Per bank write bursts
system.mem_ctrls0.perBankRdBursts::12               0                       # Per bank write bursts
system.mem_ctrls0.perBankRdBursts::13               0                       # Per bank write bursts
system.mem_ctrls0.perBankRdBursts::14               2                       # Per bank write bursts
system.mem_ctrls0.perBankRdBursts::15               0                       # Per bank write bursts
system.mem_ctrls0.perBankRdBursts::16               2                       # Per bank write bursts
system.mem_ctrls0.perBankRdBursts::17               0                       # Per bank write bursts
system.mem_ctrls0.perBankRdBursts::18               2                       # Per bank write bursts
system.mem_ctrls0.perBankRdBursts::19               0                       # Per bank write bursts
system.mem_ctrls0.perBankRdBursts::20               2                       # Per bank write bursts
system.mem_ctrls0.perBankRdBursts::21               4                       # Per bank write bursts
system.mem_ctrls0.perBankRdBursts::22               3                       # Per bank write bursts
system.mem_ctrls0.perBankRdBursts::23               0                       # Per bank write bursts
system.mem_ctrls0.perBankRdBursts::24               3                       # Per bank write bursts
system.mem_ctrls0.perBankRdBursts::25               0                       # Per bank write bursts
system.mem_ctrls0.perBankRdBursts::26               0                       # Per bank write bursts
system.mem_ctrls0.perBankRdBursts::27               0                       # Per bank write bursts
system.mem_ctrls0.perBankRdBursts::28               2                       # Per bank write bursts
system.mem_ctrls0.perBankRdBursts::29               0                       # Per bank write bursts
system.mem_ctrls0.perBankRdBursts::30               0                       # Per bank write bursts
system.mem_ctrls0.perBankRdBursts::31               1                       # Per bank write bursts
system.mem_ctrls0.perBankWrBursts::0                0                       # Per bank write bursts
system.mem_ctrls0.perBankWrBursts::1                0                       # Per bank write bursts
system.mem_ctrls0.perBankWrBursts::2                0                       # Per bank write bursts
system.mem_ctrls0.perBankWrBursts::3                0                       # Per bank write bursts
system.mem_ctrls0.perBankWrBursts::4                0                       # Per bank write bursts
system.mem_ctrls0.perBankWrBursts::5                0                       # Per bank write bursts
system.mem_ctrls0.perBankWrBursts::6                0                       # Per bank write bursts
system.mem_ctrls0.perBankWrBursts::7                0                       # Per bank write bursts
system.mem_ctrls0.perBankWrBursts::8                0                       # Per bank write bursts
system.mem_ctrls0.perBankWrBursts::9                0                       # Per bank write bursts
system.mem_ctrls0.perBankWrBursts::10               0                       # Per bank write bursts
system.mem_ctrls0.perBankWrBursts::11               0                       # Per bank write bursts
system.mem_ctrls0.perBankWrBursts::12               0                       # Per bank write bursts
system.mem_ctrls0.perBankWrBursts::13               0                       # Per bank write bursts
system.mem_ctrls0.perBankWrBursts::14               0                       # Per bank write bursts
system.mem_ctrls0.perBankWrBursts::15               0                       # Per bank write bursts
system.mem_ctrls0.perBankWrBursts::16               0                       # Per bank write bursts
system.mem_ctrls0.perBankWrBursts::17               0                       # Per bank write bursts
system.mem_ctrls0.perBankWrBursts::18               0                       # Per bank write bursts
system.mem_ctrls0.perBankWrBursts::19               0                       # Per bank write bursts
system.mem_ctrls0.perBankWrBursts::20               0                       # Per bank write bursts
system.mem_ctrls0.perBankWrBursts::21               0                       # Per bank write bursts
system.mem_ctrls0.perBankWrBursts::22               0                       # Per bank write bursts
system.mem_ctrls0.perBankWrBursts::23               0                       # Per bank write bursts
system.mem_ctrls0.perBankWrBursts::24               0                       # Per bank write bursts
system.mem_ctrls0.perBankWrBursts::25               0                       # Per bank write bursts
system.mem_ctrls0.perBankWrBursts::26               0                       # Per bank write bursts
system.mem_ctrls0.perBankWrBursts::27               0                       # Per bank write bursts
system.mem_ctrls0.perBankWrBursts::28               0                       # Per bank write bursts
system.mem_ctrls0.perBankWrBursts::29               0                       # Per bank write bursts
system.mem_ctrls0.perBankWrBursts::30               0                       # Per bank write bursts
system.mem_ctrls0.perBankWrBursts::31               0                       # Per bank write bursts
system.mem_ctrls0.numRdRetry                        0                       # Number of times read queue was full causing retry
system.mem_ctrls0.numWrRetry                        0                       # Number of times write queue was full causing retry
system.mem_ctrls0.totGap                       752913                       # Total gap between requests
system.mem_ctrls0.readPktSize::0                    0                       # Read request sizes (log2)
system.mem_ctrls0.readPktSize::1                    0                       # Read request sizes (log2)
system.mem_ctrls0.readPktSize::2                    0                       # Read request sizes (log2)
system.mem_ctrls0.readPktSize::3                    0                       # Read request sizes (log2)
system.mem_ctrls0.readPktSize::4                    0                       # Read request sizes (log2)
system.mem_ctrls0.readPktSize::5                    0                       # Read request sizes (log2)
system.mem_ctrls0.readPktSize::6                   39                       # Read request sizes (log2)
system.mem_ctrls0.writePktSize::0                   0                       # Write request sizes (log2)
system.mem_ctrls0.writePktSize::1                   0                       # Write request sizes (log2)
system.mem_ctrls0.writePktSize::2                   0                       # Write request sizes (log2)
system.mem_ctrls0.writePktSize::3                   0                       # Write request sizes (log2)
system.mem_ctrls0.writePktSize::4                   0                       # Write request sizes (log2)
system.mem_ctrls0.writePktSize::5                   0                       # Write request sizes (log2)
system.mem_ctrls0.writePktSize::6                   0                       # Write request sizes (log2)
system.mem_ctrls0.rdQLenPdf::0                      8                       # What read queue length does an incoming req see
system.mem_ctrls0.rdQLenPdf::1                      8                       # What read queue length does an incoming req see
system.mem_ctrls0.rdQLenPdf::2                     10                       # What read queue length does an incoming req see
system.mem_ctrls0.rdQLenPdf::3                      3                       # What read queue length does an incoming req see
system.mem_ctrls0.rdQLenPdf::4                      8                       # What read queue length does an incoming req see
system.mem_ctrls0.rdQLenPdf::5                      2                       # What read queue length does an incoming req see
system.mem_ctrls0.rdQLenPdf::6                      0                       # What read queue length does an incoming req see
system.mem_ctrls0.rdQLenPdf::7                      0                       # What read queue length does an incoming req see
system.mem_ctrls0.rdQLenPdf::8                      0                       # What read queue length does an incoming req see
system.mem_ctrls0.rdQLenPdf::9                      0                       # What read queue length does an incoming req see
system.mem_ctrls0.rdQLenPdf::10                     0                       # What read queue length does an incoming req see
system.mem_ctrls0.rdQLenPdf::11                     0                       # What read queue length does an incoming req see
system.mem_ctrls0.rdQLenPdf::12                     0                       # What read queue length does an incoming req see
system.mem_ctrls0.rdQLenPdf::13                     0                       # What read queue length does an incoming req see
system.mem_ctrls0.rdQLenPdf::14                     0                       # What read queue length does an incoming req see
system.mem_ctrls0.rdQLenPdf::15                     0                       # What read queue length does an incoming req see
system.mem_ctrls0.rdQLenPdf::16                     0                       # What read queue length does an incoming req see
system.mem_ctrls0.rdQLenPdf::17                     0                       # What read queue length does an incoming req see
system.mem_ctrls0.rdQLenPdf::18                     0                       # What read queue length does an incoming req see
system.mem_ctrls0.rdQLenPdf::19                     0                       # What read queue length does an incoming req see
system.mem_ctrls0.rdQLenPdf::20                     0                       # What read queue length does an incoming req see
system.mem_ctrls0.rdQLenPdf::21                     0                       # What read queue length does an incoming req see
system.mem_ctrls0.rdQLenPdf::22                     0                       # What read queue length does an incoming req see
system.mem_ctrls0.rdQLenPdf::23                     0                       # What read queue length does an incoming req see
system.mem_ctrls0.rdQLenPdf::24                     0                       # What read queue length does an incoming req see
system.mem_ctrls0.rdQLenPdf::25                     0                       # What read queue length does an incoming req see
system.mem_ctrls0.rdQLenPdf::26                     0                       # What read queue length does an incoming req see
system.mem_ctrls0.rdQLenPdf::27                     0                       # What read queue length does an incoming req see
system.mem_ctrls0.rdQLenPdf::28                     0                       # What read queue length does an incoming req see
system.mem_ctrls0.rdQLenPdf::29                     0                       # What read queue length does an incoming req see
system.mem_ctrls0.rdQLenPdf::30                     0                       # What read queue length does an incoming req see
system.mem_ctrls0.rdQLenPdf::31                     0                       # What read queue length does an incoming req see
system.mem_ctrls0.rdQLenPdf::32                     0                       # What read queue length does an incoming req see
system.mem_ctrls0.rdQLenPdf::33                     0                       # What read queue length does an incoming req see
system.mem_ctrls0.rdQLenPdf::34                     0                       # What read queue length does an incoming req see
system.mem_ctrls0.rdQLenPdf::35                     0                       # What read queue length does an incoming req see
system.mem_ctrls0.rdQLenPdf::36                     0                       # What read queue length does an incoming req see
system.mem_ctrls0.rdQLenPdf::37                     0                       # What read queue length does an incoming req see
system.mem_ctrls0.rdQLenPdf::38                     0                       # What read queue length does an incoming req see
system.mem_ctrls0.rdQLenPdf::39                     0                       # What read queue length does an incoming req see
system.mem_ctrls0.rdQLenPdf::40                     0                       # What read queue length does an incoming req see
system.mem_ctrls0.rdQLenPdf::41                     0                       # What read queue length does an incoming req see
system.mem_ctrls0.rdQLenPdf::42                     0                       # What read queue length does an incoming req see
system.mem_ctrls0.rdQLenPdf::43                     0                       # What read queue length does an incoming req see
system.mem_ctrls0.rdQLenPdf::44                     0                       # What read queue length does an incoming req see
system.mem_ctrls0.rdQLenPdf::45                     0                       # What read queue length does an incoming req see
system.mem_ctrls0.rdQLenPdf::46                     0                       # What read queue length does an incoming req see
system.mem_ctrls0.rdQLenPdf::47                     0                       # What read queue length does an incoming req see
system.mem_ctrls0.rdQLenPdf::48                     0                       # What read queue length does an incoming req see
system.mem_ctrls0.rdQLenPdf::49                     0                       # What read queue length does an incoming req see
system.mem_ctrls0.rdQLenPdf::50                     0                       # What read queue length does an incoming req see
system.mem_ctrls0.rdQLenPdf::51                     0                       # What read queue length does an incoming req see
system.mem_ctrls0.rdQLenPdf::52                     0                       # What read queue length does an incoming req see
system.mem_ctrls0.rdQLenPdf::53                     0                       # What read queue length does an incoming req see
system.mem_ctrls0.rdQLenPdf::54                     0                       # What read queue length does an incoming req see
system.mem_ctrls0.rdQLenPdf::55                     0                       # What read queue length does an incoming req see
system.mem_ctrls0.rdQLenPdf::56                     0                       # What read queue length does an incoming req see
system.mem_ctrls0.rdQLenPdf::57                     0                       # What read queue length does an incoming req see
system.mem_ctrls0.rdQLenPdf::58                     0                       # What read queue length does an incoming req see
system.mem_ctrls0.rdQLenPdf::59                     0                       # What read queue length does an incoming req see
system.mem_ctrls0.rdQLenPdf::60                     0                       # What read queue length does an incoming req see
system.mem_ctrls0.rdQLenPdf::61                     0                       # What read queue length does an incoming req see
system.mem_ctrls0.rdQLenPdf::62                     0                       # What read queue length does an incoming req see
system.mem_ctrls0.rdQLenPdf::63                     0                       # What read queue length does an incoming req see
system.mem_ctrls0.wrQLenPdf::0                      0                       # What write queue length does an incoming req see
system.mem_ctrls0.wrQLenPdf::1                      0                       # What write queue length does an incoming req see
system.mem_ctrls0.wrQLenPdf::2                      0                       # What write queue length does an incoming req see
system.mem_ctrls0.wrQLenPdf::3                      0                       # What write queue length does an incoming req see
system.mem_ctrls0.wrQLenPdf::4                      0                       # What write queue length does an incoming req see
system.mem_ctrls0.wrQLenPdf::5                      0                       # What write queue length does an incoming req see
system.mem_ctrls0.wrQLenPdf::6                      0                       # What write queue length does an incoming req see
system.mem_ctrls0.wrQLenPdf::7                      0                       # What write queue length does an incoming req see
system.mem_ctrls0.wrQLenPdf::8                      0                       # What write queue length does an incoming req see
system.mem_ctrls0.wrQLenPdf::9                      0                       # What write queue length does an incoming req see
system.mem_ctrls0.wrQLenPdf::10                     0                       # What write queue length does an incoming req see
system.mem_ctrls0.wrQLenPdf::11                     0                       # What write queue length does an incoming req see
system.mem_ctrls0.wrQLenPdf::12                     0                       # What write queue length does an incoming req see
system.mem_ctrls0.wrQLenPdf::13                     0                       # What write queue length does an incoming req see
system.mem_ctrls0.wrQLenPdf::14                     0                       # What write queue length does an incoming req see
system.mem_ctrls0.wrQLenPdf::15                     0                       # What write queue length does an incoming req see
system.mem_ctrls0.wrQLenPdf::16                     0                       # What write queue length does an incoming req see
system.mem_ctrls0.wrQLenPdf::17                     0                       # What write queue length does an incoming req see
system.mem_ctrls0.wrQLenPdf::18                     0                       # What write queue length does an incoming req see
system.mem_ctrls0.wrQLenPdf::19                     0                       # What write queue length does an incoming req see
system.mem_ctrls0.wrQLenPdf::20                     0                       # What write queue length does an incoming req see
system.mem_ctrls0.wrQLenPdf::21                     0                       # What write queue length does an incoming req see
system.mem_ctrls0.wrQLenPdf::22                     0                       # What write queue length does an incoming req see
system.mem_ctrls0.wrQLenPdf::23                     0                       # What write queue length does an incoming req see
system.mem_ctrls0.wrQLenPdf::24                     0                       # What write queue length does an incoming req see
system.mem_ctrls0.wrQLenPdf::25                     0                       # What write queue length does an incoming req see
system.mem_ctrls0.wrQLenPdf::26                     0                       # What write queue length does an incoming req see
system.mem_ctrls0.wrQLenPdf::27                     0                       # What write queue length does an incoming req see
system.mem_ctrls0.wrQLenPdf::28                     0                       # What write queue length does an incoming req see
system.mem_ctrls0.wrQLenPdf::29                     0                       # What write queue length does an incoming req see
system.mem_ctrls0.wrQLenPdf::30                     0                       # What write queue length does an incoming req see
system.mem_ctrls0.wrQLenPdf::31                     0                       # What write queue length does an incoming req see
system.mem_ctrls0.wrQLenPdf::32                     0                       # What write queue length does an incoming req see
system.mem_ctrls0.wrQLenPdf::33                     0                       # What write queue length does an incoming req see
system.mem_ctrls0.wrQLenPdf::34                     0                       # What write queue length does an incoming req see
system.mem_ctrls0.wrQLenPdf::35                     0                       # What write queue length does an incoming req see
system.mem_ctrls0.wrQLenPdf::36                     0                       # What write queue length does an incoming req see
system.mem_ctrls0.wrQLenPdf::37                     0                       # What write queue length does an incoming req see
system.mem_ctrls0.wrQLenPdf::38                     0                       # What write queue length does an incoming req see
system.mem_ctrls0.wrQLenPdf::39                     0                       # What write queue length does an incoming req see
system.mem_ctrls0.wrQLenPdf::40                     0                       # What write queue length does an incoming req see
system.mem_ctrls0.wrQLenPdf::41                     0                       # What write queue length does an incoming req see
system.mem_ctrls0.wrQLenPdf::42                     0                       # What write queue length does an incoming req see
system.mem_ctrls0.wrQLenPdf::43                     0                       # What write queue length does an incoming req see
system.mem_ctrls0.wrQLenPdf::44                     0                       # What write queue length does an incoming req see
system.mem_ctrls0.wrQLenPdf::45                     0                       # What write queue length does an incoming req see
system.mem_ctrls0.wrQLenPdf::46                     0                       # What write queue length does an incoming req see
system.mem_ctrls0.wrQLenPdf::47                     0                       # What write queue length does an incoming req see
system.mem_ctrls0.wrQLenPdf::48                     0                       # What write queue length does an incoming req see
system.mem_ctrls0.wrQLenPdf::49                     0                       # What write queue length does an incoming req see
system.mem_ctrls0.wrQLenPdf::50                     0                       # What write queue length does an incoming req see
system.mem_ctrls0.wrQLenPdf::51                     0                       # What write queue length does an incoming req see
system.mem_ctrls0.wrQLenPdf::52                     0                       # What write queue length does an incoming req see
system.mem_ctrls0.wrQLenPdf::53                     0                       # What write queue length does an incoming req see
system.mem_ctrls0.wrQLenPdf::54                     0                       # What write queue length does an incoming req see
system.mem_ctrls0.wrQLenPdf::55                     0                       # What write queue length does an incoming req see
system.mem_ctrls0.wrQLenPdf::56                     0                       # What write queue length does an incoming req see
system.mem_ctrls0.wrQLenPdf::57                     0                       # What write queue length does an incoming req see
system.mem_ctrls0.wrQLenPdf::58                     0                       # What write queue length does an incoming req see
system.mem_ctrls0.wrQLenPdf::59                     0                       # What write queue length does an incoming req see
system.mem_ctrls0.wrQLenPdf::60                     0                       # What write queue length does an incoming req see
system.mem_ctrls0.wrQLenPdf::61                     0                       # What write queue length does an incoming req see
system.mem_ctrls0.wrQLenPdf::62                     0                       # What write queue length does an incoming req see
system.mem_ctrls0.wrQLenPdf::63                     0                       # What write queue length does an incoming req see
system.mem_ctrls0.wrQLenPdf::64                     0                       # What write queue length does an incoming req see
system.mem_ctrls0.wrQLenPdf::65                     0                       # What write queue length does an incoming req see
system.mem_ctrls0.wrQLenPdf::66                     0                       # What write queue length does an incoming req see
system.mem_ctrls0.wrQLenPdf::67                     0                       # What write queue length does an incoming req see
system.mem_ctrls0.wrQLenPdf::68                     0                       # What write queue length does an incoming req see
system.mem_ctrls0.wrQLenPdf::69                     0                       # What write queue length does an incoming req see
system.mem_ctrls0.wrQLenPdf::70                     0                       # What write queue length does an incoming req see
system.mem_ctrls0.wrQLenPdf::71                     0                       # What write queue length does an incoming req see
system.mem_ctrls0.wrQLenPdf::72                     0                       # What write queue length does an incoming req see
system.mem_ctrls0.wrQLenPdf::73                     0                       # What write queue length does an incoming req see
system.mem_ctrls0.wrQLenPdf::74                     0                       # What write queue length does an incoming req see
system.mem_ctrls0.wrQLenPdf::75                     0                       # What write queue length does an incoming req see
system.mem_ctrls0.wrQLenPdf::76                     0                       # What write queue length does an incoming req see
system.mem_ctrls0.wrQLenPdf::77                     0                       # What write queue length does an incoming req see
system.mem_ctrls0.wrQLenPdf::78                     0                       # What write queue length does an incoming req see
system.mem_ctrls0.wrQLenPdf::79                     0                       # What write queue length does an incoming req see
system.mem_ctrls0.wrQLenPdf::80                     0                       # What write queue length does an incoming req see
system.mem_ctrls0.wrQLenPdf::81                     0                       # What write queue length does an incoming req see
system.mem_ctrls0.wrQLenPdf::82                     0                       # What write queue length does an incoming req see
system.mem_ctrls0.wrQLenPdf::83                     0                       # What write queue length does an incoming req see
system.mem_ctrls0.wrQLenPdf::84                     0                       # What write queue length does an incoming req see
system.mem_ctrls0.wrQLenPdf::85                     0                       # What write queue length does an incoming req see
system.mem_ctrls0.wrQLenPdf::86                     0                       # What write queue length does an incoming req see
system.mem_ctrls0.wrQLenPdf::87                     0                       # What write queue length does an incoming req see
system.mem_ctrls0.wrQLenPdf::88                     0                       # What write queue length does an incoming req see
system.mem_ctrls0.wrQLenPdf::89                     0                       # What write queue length does an incoming req see
system.mem_ctrls0.wrQLenPdf::90                     0                       # What write queue length does an incoming req see
system.mem_ctrls0.wrQLenPdf::91                     0                       # What write queue length does an incoming req see
system.mem_ctrls0.wrQLenPdf::92                     0                       # What write queue length does an incoming req see
system.mem_ctrls0.wrQLenPdf::93                     0                       # What write queue length does an incoming req see
system.mem_ctrls0.wrQLenPdf::94                     0                       # What write queue length does an incoming req see
system.mem_ctrls0.wrQLenPdf::95                     0                       # What write queue length does an incoming req see
system.mem_ctrls0.wrQLenPdf::96                     0                       # What write queue length does an incoming req see
system.mem_ctrls0.wrQLenPdf::97                     0                       # What write queue length does an incoming req see
system.mem_ctrls0.wrQLenPdf::98                     0                       # What write queue length does an incoming req see
system.mem_ctrls0.wrQLenPdf::99                     0                       # What write queue length does an incoming req see
system.mem_ctrls0.wrQLenPdf::100                    0                       # What write queue length does an incoming req see
system.mem_ctrls0.wrQLenPdf::101                    0                       # What write queue length does an incoming req see
system.mem_ctrls0.wrQLenPdf::102                    0                       # What write queue length does an incoming req see
system.mem_ctrls0.wrQLenPdf::103                    0                       # What write queue length does an incoming req see
system.mem_ctrls0.wrQLenPdf::104                    0                       # What write queue length does an incoming req see
system.mem_ctrls0.wrQLenPdf::105                    0                       # What write queue length does an incoming req see
system.mem_ctrls0.wrQLenPdf::106                    0                       # What write queue length does an incoming req see
system.mem_ctrls0.wrQLenPdf::107                    0                       # What write queue length does an incoming req see
system.mem_ctrls0.wrQLenPdf::108                    0                       # What write queue length does an incoming req see
system.mem_ctrls0.wrQLenPdf::109                    0                       # What write queue length does an incoming req see
system.mem_ctrls0.wrQLenPdf::110                    0                       # What write queue length does an incoming req see
system.mem_ctrls0.wrQLenPdf::111                    0                       # What write queue length does an incoming req see
system.mem_ctrls0.wrQLenPdf::112                    0                       # What write queue length does an incoming req see
system.mem_ctrls0.wrQLenPdf::113                    0                       # What write queue length does an incoming req see
system.mem_ctrls0.wrQLenPdf::114                    0                       # What write queue length does an incoming req see
system.mem_ctrls0.wrQLenPdf::115                    0                       # What write queue length does an incoming req see
system.mem_ctrls0.wrQLenPdf::116                    0                       # What write queue length does an incoming req see
system.mem_ctrls0.wrQLenPdf::117                    0                       # What write queue length does an incoming req see
system.mem_ctrls0.wrQLenPdf::118                    0                       # What write queue length does an incoming req see
system.mem_ctrls0.wrQLenPdf::119                    0                       # What write queue length does an incoming req see
system.mem_ctrls0.wrQLenPdf::120                    0                       # What write queue length does an incoming req see
system.mem_ctrls0.wrQLenPdf::121                    0                       # What write queue length does an incoming req see
system.mem_ctrls0.wrQLenPdf::122                    0                       # What write queue length does an incoming req see
system.mem_ctrls0.wrQLenPdf::123                    0                       # What write queue length does an incoming req see
system.mem_ctrls0.wrQLenPdf::124                    0                       # What write queue length does an incoming req see
system.mem_ctrls0.wrQLenPdf::125                    0                       # What write queue length does an incoming req see
system.mem_ctrls0.wrQLenPdf::126                    0                       # What write queue length does an incoming req see
system.mem_ctrls0.wrQLenPdf::127                    0                       # What write queue length does an incoming req see
system.mem_ctrls0.bytesPerActivate::samples            2                       # Bytes accessed per row activation
system.mem_ctrls0.bytesPerActivate::mean          128                       # Bytes accessed per row activation
system.mem_ctrls0.bytesPerActivate::gmean   110.851252                       # Bytes accessed per row activation
system.mem_ctrls0.bytesPerActivate::stdev    90.509668                       # Bytes accessed per row activation
system.mem_ctrls0.bytesPerActivate::64-79            1     50.00%     50.00% # Bytes accessed per row activation
system.mem_ctrls0.bytesPerActivate::192-207            1     50.00%    100.00% # Bytes accessed per row activation
system.mem_ctrls0.bytesPerActivate::total            2                       # Bytes accessed per row activation
system.mem_ctrls0.masterReadBytes::.cpu0.inst          320                       # Per-master bytes read from memory
system.mem_ctrls0.masterReadBytes::.cpu0.data          256                       # Per-master bytes read from memory
system.mem_ctrls0.masterReadBytes::.cpu1.inst          256                       # Per-master bytes read from memory
system.mem_ctrls0.masterReadBytes::.cpu1.data          320                       # Per-master bytes read from memory
system.mem_ctrls0.masterReadBytes::.cpu2.inst          384                       # Per-master bytes read from memory
system.mem_ctrls0.masterReadBytes::.cpu2.data          320                       # Per-master bytes read from memory
system.mem_ctrls0.masterReadBytes::.cpu3.inst          320                       # Per-master bytes read from memory
system.mem_ctrls0.masterReadBytes::.cpu3.data          320                       # Per-master bytes read from memory
system.mem_ctrls0.masterReadRate::.cpu0.inst 412429596.978953182697                       # Per-master bytes read from memory rate (Bytes/sec)
system.mem_ctrls0.masterReadRate::.cpu0.data 329943677.583162546158                       # Per-master bytes read from memory rate (Bytes/sec)
system.mem_ctrls0.masterReadRate::.cpu1.inst 329943677.583162546158                       # Per-master bytes read from memory rate (Bytes/sec)
system.mem_ctrls0.masterReadRate::.cpu1.data 412429596.978953182697                       # Per-master bytes read from memory rate (Bytes/sec)
system.mem_ctrls0.masterReadRate::.cpu2.inst 494915516.374743819237                       # Per-master bytes read from memory rate (Bytes/sec)
system.mem_ctrls0.masterReadRate::.cpu2.data 412429596.978953182697                       # Per-master bytes read from memory rate (Bytes/sec)
system.mem_ctrls0.masterReadRate::.cpu3.inst 412429596.978953182697                       # Per-master bytes read from memory rate (Bytes/sec)
system.mem_ctrls0.masterReadRate::.cpu3.data 412429596.978953182697                       # Per-master bytes read from memory rate (Bytes/sec)
system.mem_ctrls0.masterReadAccesses::.cpu0.inst            5                       # Per-master read serviced memory accesses
system.mem_ctrls0.masterReadAccesses::.cpu0.data            4                       # Per-master read serviced memory accesses
system.mem_ctrls0.masterReadAccesses::.cpu1.inst            4                       # Per-master read serviced memory accesses
system.mem_ctrls0.masterReadAccesses::.cpu1.data            5                       # Per-master read serviced memory accesses
system.mem_ctrls0.masterReadAccesses::.cpu2.inst            6                       # Per-master read serviced memory accesses
system.mem_ctrls0.masterReadAccesses::.cpu2.data            5                       # Per-master read serviced memory accesses
system.mem_ctrls0.masterReadAccesses::.cpu3.inst            5                       # Per-master read serviced memory accesses
system.mem_ctrls0.masterReadAccesses::.cpu3.data            5                       # Per-master read serviced memory accesses
system.mem_ctrls0.masterReadTotalLat::.cpu0.inst       144142                       # Per-master read total memory access latency
system.mem_ctrls0.masterReadTotalLat::.cpu0.data       149647                       # Per-master read total memory access latency
system.mem_ctrls0.masterReadTotalLat::.cpu1.inst       119380                       # Per-master read total memory access latency
system.mem_ctrls0.masterReadTotalLat::.cpu1.data       185397                       # Per-master read total memory access latency
system.mem_ctrls0.masterReadTotalLat::.cpu2.inst       186062                       # Per-master read total memory access latency
system.mem_ctrls0.masterReadTotalLat::.cpu2.data       154794                       # Per-master read total memory access latency
system.mem_ctrls0.masterReadTotalLat::.cpu3.inst       156230                       # Per-master read total memory access latency
system.mem_ctrls0.masterReadTotalLat::.cpu3.data       194806                       # Per-master read total memory access latency
system.mem_ctrls0.masterReadAvgLat::.cpu0.inst     28828.40                       # Per-master read average memory access latency
system.mem_ctrls0.masterReadAvgLat::.cpu0.data     37411.75                       # Per-master read average memory access latency
system.mem_ctrls0.masterReadAvgLat::.cpu1.inst     29845.00                       # Per-master read average memory access latency
system.mem_ctrls0.masterReadAvgLat::.cpu1.data     37079.40                       # Per-master read average memory access latency
system.mem_ctrls0.masterReadAvgLat::.cpu2.inst     31010.33                       # Per-master read average memory access latency
system.mem_ctrls0.masterReadAvgLat::.cpu2.data     30958.80                       # Per-master read average memory access latency
system.mem_ctrls0.masterReadAvgLat::.cpu3.inst     31246.00                       # Per-master read average memory access latency
system.mem_ctrls0.masterReadAvgLat::.cpu3.data     38961.20                       # Per-master read average memory access latency
system.mem_ctrls0.totQLat                      593918                       # Total ticks spent queuing
system.mem_ctrls0.totMemAccLat                1290458                       # Total ticks spent from burst creation until serviced by the DRAM
system.mem_ctrls0.totBusLat                    146640                       # Total ticks spent in databus transfers
system.mem_ctrls0.avgQLat                    15228.67                       # Average queueing delay per DRAM burst
system.mem_ctrls0.avgBusLat                   3760.00                       # Average bus latency per DRAM burst
system.mem_ctrls0.avgMemAccLat               33088.67                       # Average memory access latency per DRAM burst
system.mem_ctrls0.avgRdBW                     3216.95                       # Average DRAM read bandwidth in MiByte/s
system.mem_ctrls0.avgWrBW                        0.00                       # Average achieved write bandwidth in MiByte/s
system.mem_ctrls0.avgRdBWSys                  3216.95                       # Average system read bandwidth in MiByte/s
system.mem_ctrls0.avgWrBWSys                     0.00                       # Average system write bandwidth in MiByte/s
system.mem_ctrls0.peakBW                     17021.00                       # Theoretical peak bandwidth in MiByte/s
system.mem_ctrls0.busUtil                       18.90                       # Data bus utilization in percentage
system.mem_ctrls0.busUtilRead                   18.90                       # Data bus utilization in percentage for reads
system.mem_ctrls0.busUtilWrite                   0.00                       # Data bus utilization in percentage for writes
system.mem_ctrls0.avgRdQLen                      2.43                       # Average read queue length when enqueuing
system.mem_ctrls0.avgWrQLen                      0.00                       # Average write queue length when enqueuing
system.mem_ctrls0.readRowHits                      21                       # Number of row buffer hits during reads
system.mem_ctrls0.writeRowHits                      0                       # Number of row buffer hits during writes
system.mem_ctrls0.readRowHitRate                53.85                       # Row buffer hit rate for reads
system.mem_ctrls0.writeRowHitRate                 nan                       # Row buffer hit rate for writes
system.mem_ctrls0.avgGap                     19305.46                       # Average gap between requests
system.mem_ctrls0.pageHitRate                   53.85                       # Row buffer hit rate, read and write combined
system.mem_ctrls0_0.actEnergy                       0                       # Energy for activate commands per rank (pJ)
system.mem_ctrls0_0.preEnergy                       0                       # Energy for precharge commands per rank (pJ)
system.mem_ctrls0_0.readEnergy           47917.440000                       # Energy for read commands per rank (pJ)
system.mem_ctrls0_0.writeEnergy                     0                       # Energy for write commands per rank (pJ)
system.mem_ctrls0_0.refreshEnergy                   0                       # Energy for refresh commands per rank (pJ)
system.mem_ctrls0_0.actBackEnergy        239880.480000                       # Energy for active background per rank (pJ)
system.mem_ctrls0_0.preBackEnergy         8338.176000                       # Energy for precharge background per rank (pJ)
system.mem_ctrls0_0.actPowerDownEnergy   133555.200000                       # Energy for active power-down per rank (pJ)
system.mem_ctrls0_0.prePowerDownEnergy              0                       # Energy for precharge power-down per rank (pJ)
system.mem_ctrls0_0.selfRefreshEnergy               0                       # Energy for self refresh per rank (pJ)
system.mem_ctrls0_0.totalEnergy          429691.296000                       # Total energy per rank (pJ)
system.mem_ctrls0_0.averagePower           553.804400                       # Core power per rank (mW)
system.mem_ctrls0_0.totalIdleTime              346732                       # Total Idle time Per DRAM Rank
system.mem_ctrls0_0.memoryStateTime::IDLE        20313                       # Time in different power states
system.mem_ctrls0_0.memoryStateTime::REF            0                       # Time in different power states
system.mem_ctrls0_0.memoryStateTime::SREF            0                       # Time in different power states
system.mem_ctrls0_0.memoryStateTime::PRE_PDN            0                       # Time in different power states
system.mem_ctrls0_0.memoryStateTime::ACT       408845                       # Time in different power states
system.mem_ctrls0_0.memoryStateTime::ACT_PDN       346732                       # Time in different power states
system.mem_ctrls0_1.actEnergy                       0                       # Energy for activate commands per rank (pJ)
system.mem_ctrls0_1.preEnergy             5211.360000                       # Energy for precharge commands per rank (pJ)
system.mem_ctrls0_1.readEnergy           47917.440000                       # Energy for read commands per rank (pJ)
system.mem_ctrls0_1.writeEnergy                     0                       # Energy for write commands per rank (pJ)
system.mem_ctrls0_1.refreshEnergy                   0                       # Energy for refresh commands per rank (pJ)
system.mem_ctrls0_1.actBackEnergy        217218.960000                       # Energy for active background per rank (pJ)
system.mem_ctrls0_1.preBackEnergy        56472.192000                       # Energy for precharge background per rank (pJ)
system.mem_ctrls0_1.actPowerDownEnergy   102512.640000                       # Energy for active power-down per rank (pJ)
system.mem_ctrls0_1.prePowerDownEnergy              0                       # Energy for precharge power-down per rank (pJ)
system.mem_ctrls0_1.selfRefreshEnergy               0                       # Energy for self refresh per rank (pJ)
system.mem_ctrls0_1.totalEnergy          429332.592000                       # Total energy per rank (pJ)
system.mem_ctrls0_1.averagePower           553.342087                       # Core power per rank (mW)
system.mem_ctrls0_1.totalIdleTime              266820                       # Total Idle time Per DRAM Rank
system.mem_ctrls0_1.memoryStateTime::IDLE       139194                       # Time in different power states
system.mem_ctrls0_1.memoryStateTime::REF            0                       # Time in different power states
system.mem_ctrls0_1.memoryStateTime::SREF            0                       # Time in different power states
system.mem_ctrls0_1.memoryStateTime::PRE_PDN            0                       # Time in different power states
system.mem_ctrls0_1.memoryStateTime::ACT       369876                       # Time in different power states
system.mem_ctrls0_1.memoryStateTime::ACT_PDN       266820                       # Time in different power states
system.mem_ctrls1.pwrStateResidencyTicks::UNDEFINED       775890                       # Cumulative time (in ticks) in various power states
system.mem_ctrls1.bytes_read::.cpu0.inst          320                       # Number of bytes read from this memory
system.mem_ctrls1.bytes_read::.cpu0.data          192                       # Number of bytes read from this memory
system.mem_ctrls1.bytes_read::.cpu1.inst          320                       # Number of bytes read from this memory
system.mem_ctrls1.bytes_read::.cpu1.data          192                       # Number of bytes read from this memory
system.mem_ctrls1.bytes_read::.cpu2.inst          320                       # Number of bytes read from this memory
system.mem_ctrls1.bytes_read::.cpu2.data          320                       # Number of bytes read from this memory
system.mem_ctrls1.bytes_read::.cpu3.inst          320                       # Number of bytes read from this memory
system.mem_ctrls1.bytes_read::.cpu3.data          256                       # Number of bytes read from this memory
system.mem_ctrls1.bytes_read::total              2240                       # Number of bytes read from this memory
system.mem_ctrls1.bytes_inst_read::.cpu0.inst          320                       # Number of instructions bytes read from this memory
system.mem_ctrls1.bytes_inst_read::.cpu1.inst          320                       # Number of instructions bytes read from this memory
system.mem_ctrls1.bytes_inst_read::.cpu2.inst          320                       # Number of instructions bytes read from this memory
system.mem_ctrls1.bytes_inst_read::.cpu3.inst          320                       # Number of instructions bytes read from this memory
system.mem_ctrls1.bytes_inst_read::total         1280                       # Number of instructions bytes read from this memory
system.mem_ctrls1.num_reads::.cpu0.inst             5                       # Number of read requests responded to by this memory
system.mem_ctrls1.num_reads::.cpu0.data             3                       # Number of read requests responded to by this memory
system.mem_ctrls1.num_reads::.cpu1.inst             5                       # Number of read requests responded to by this memory
system.mem_ctrls1.num_reads::.cpu1.data             3                       # Number of read requests responded to by this memory
system.mem_ctrls1.num_reads::.cpu2.inst             5                       # Number of read requests responded to by this memory
system.mem_ctrls1.num_reads::.cpu2.data             5                       # Number of read requests responded to by this memory
system.mem_ctrls1.num_reads::.cpu3.inst             5                       # Number of read requests responded to by this memory
system.mem_ctrls1.num_reads::.cpu3.data             4                       # Number of read requests responded to by this memory
system.mem_ctrls1.num_reads::total                 35                       # Number of read requests responded to by this memory
system.mem_ctrls1.bw_read::.cpu0.inst       412429597                       # Total read bandwidth from this memory (bytes/s)
system.mem_ctrls1.bw_read::.cpu0.data       247457758                       # Total read bandwidth from this memory (bytes/s)
system.mem_ctrls1.bw_read::.cpu1.inst       412429597                       # Total read bandwidth from this memory (bytes/s)
system.mem_ctrls1.bw_read::.cpu1.data       247457758                       # Total read bandwidth from this memory (bytes/s)
system.mem_ctrls1.bw_read::.cpu2.inst       412429597                       # Total read bandwidth from this memory (bytes/s)
system.mem_ctrls1.bw_read::.cpu2.data       412429597                       # Total read bandwidth from this memory (bytes/s)
system.mem_ctrls1.bw_read::.cpu3.inst       412429597                       # Total read bandwidth from this memory (bytes/s)
system.mem_ctrls1.bw_read::.cpu3.data       329943678                       # Total read bandwidth from this memory (bytes/s)
system.mem_ctrls1.bw_read::total           2887007179                       # Total read bandwidth from this memory (bytes/s)
system.mem_ctrls1.bw_inst_read::.cpu0.inst    412429597                       # Instruction read bandwidth from this memory (bytes/s)
system.mem_ctrls1.bw_inst_read::.cpu1.inst    412429597                       # Instruction read bandwidth from this memory (bytes/s)
system.mem_ctrls1.bw_inst_read::.cpu2.inst    412429597                       # Instruction read bandwidth from this memory (bytes/s)
system.mem_ctrls1.bw_inst_read::.cpu3.inst    412429597                       # Instruction read bandwidth from this memory (bytes/s)
system.mem_ctrls1.bw_inst_read::total      1649718388                       # Instruction read bandwidth from this memory (bytes/s)
system.mem_ctrls1.bw_total::.cpu0.inst      412429597                       # Total bandwidth to/from this memory (bytes/s)
system.mem_ctrls1.bw_total::.cpu0.data      247457758                       # Total bandwidth to/from this memory (bytes/s)
system.mem_ctrls1.bw_total::.cpu1.inst      412429597                       # Total bandwidth to/from this memory (bytes/s)
system.mem_ctrls1.bw_total::.cpu1.data      247457758                       # Total bandwidth to/from this memory (bytes/s)
system.mem_ctrls1.bw_total::.cpu2.inst      412429597                       # Total bandwidth to/from this memory (bytes/s)
system.mem_ctrls1.bw_total::.cpu2.data      412429597                       # Total bandwidth to/from this memory (bytes/s)
system.mem_ctrls1.bw_total::.cpu3.inst      412429597                       # Total bandwidth to/from this memory (bytes/s)
system.mem_ctrls1.bw_total::.cpu3.data      329943678                       # Total bandwidth to/from this memory (bytes/s)
system.mem_ctrls1.bw_total::total          2887007179                       # Total bandwidth to/from this memory (bytes/s)
system.mem_ctrls1.avgPriority_.cpu0.inst::samples         5.00                       # Average QoS priority value for accepted requests
system.mem_ctrls1.avgPriority_.cpu0.data::samples         5.00                       # Average QoS priority value for accepted requests
system.mem_ctrls1.avgPriority_.cpu1.inst::samples         6.00                       # Average QoS priority value for accepted requests
system.mem_ctrls1.avgPriority_.cpu1.data::samples         4.00                       # Average QoS priority value for accepted requests
system.mem_ctrls1.avgPriority_.cpu2.inst::samples         5.00                       # Average QoS priority value for accepted requests
system.mem_ctrls1.avgPriority_.cpu2.data::samples         5.00                       # Average QoS priority value for accepted requests
system.mem_ctrls1.avgPriority_.cpu3.inst::samples         5.00                       # Average QoS priority value for accepted requests
system.mem_ctrls1.avgPriority_.cpu3.data::samples         4.00                       # Average QoS priority value for accepted requests
system.mem_ctrls1.priorityMinLatency     0.000000017860                       # per QoS priority minimum request to response latency (s)
system.mem_ctrls1.priorityMaxLatency     0.000000103004                       # per QoS priority maximum request to response latency (s)
system.mem_ctrls1.numReadWriteTurnArounds            0                       # Number of turnarounds from READ to WRITE
system.mem_ctrls1.numWriteReadTurnArounds            0                       # Number of turnarounds from WRITE to READ
system.mem_ctrls1.numStayReadState                 67                       # Number of times bus staying in READ state
system.mem_ctrls1.numStayWriteState                 0                       # Number of times bus staying in WRITE state
system.mem_ctrls1.readReqs                         39                       # Number of read requests accepted
system.mem_ctrls1.writeReqs                         0                       # Number of write requests accepted
system.mem_ctrls1.readBursts                       39                       # Number of DRAM read bursts, including those serviced by the write queue
system.mem_ctrls1.writeBursts                       0                       # Number of DRAM write bursts, including those merged in the write queue
system.mem_ctrls1.bytesReadDRAM                  2432                       # Total number of bytes read from DRAM
system.mem_ctrls1.bytesReadWrQ                      0                       # Total number of bytes read from write queue
system.mem_ctrls1.bytesWritten                      0                       # Total number of bytes written to DRAM
system.mem_ctrls1.bytesReadSys                   2496                       # Total read bytes from the system interface side
system.mem_ctrls1.bytesWrittenSys                   0                       # Total written bytes from the system interface side
system.mem_ctrls1.servicedByWrQ                     0                       # Number of DRAM read bursts serviced by the write queue
system.mem_ctrls1.mergedWrBursts                    0                       # Number of DRAM write bursts merged with an existing one
system.mem_ctrls1.neitherReadNorWriteReqs            0                       # Number of requests that are neither read nor write
system.mem_ctrls1.perBankRdBursts::0                5                       # Per bank write bursts
system.mem_ctrls1.perBankRdBursts::1                2                       # Per bank write bursts
system.mem_ctrls1.perBankRdBursts::2                0                       # Per bank write bursts
system.mem_ctrls1.perBankRdBursts::3                2                       # Per bank write bursts
system.mem_ctrls1.perBankRdBursts::4                2                       # Per bank write bursts
system.mem_ctrls1.perBankRdBursts::5                0                       # Per bank write bursts
system.mem_ctrls1.perBankRdBursts::6                2                       # Per bank write bursts
system.mem_ctrls1.perBankRdBursts::7                0                       # Per bank write bursts
system.mem_ctrls1.perBankRdBursts::8                0                       # Per bank write bursts
system.mem_ctrls1.perBankRdBursts::9                1                       # Per bank write bursts
system.mem_ctrls1.perBankRdBursts::10               0                       # Per bank write bursts
system.mem_ctrls1.perBankRdBursts::11               3                       # Per bank write bursts
system.mem_ctrls1.perBankRdBursts::12               0                       # Per bank write bursts
system.mem_ctrls1.perBankRdBursts::13               0                       # Per bank write bursts
system.mem_ctrls1.perBankRdBursts::14               3                       # Per bank write bursts
system.mem_ctrls1.perBankRdBursts::15               0                       # Per bank write bursts
system.mem_ctrls1.perBankRdBursts::16               1                       # Per bank write bursts
system.mem_ctrls1.perBankRdBursts::17               0                       # Per bank write bursts
system.mem_ctrls1.perBankRdBursts::18               1                       # Per bank write bursts
system.mem_ctrls1.perBankRdBursts::19               1                       # Per bank write bursts
system.mem_ctrls1.perBankRdBursts::20               1                       # Per bank write bursts
system.mem_ctrls1.perBankRdBursts::21               3                       # Per bank write bursts
system.mem_ctrls1.perBankRdBursts::22               5                       # Per bank write bursts
system.mem_ctrls1.perBankRdBursts::23               0                       # Per bank write bursts
system.mem_ctrls1.perBankRdBursts::24               2                       # Per bank write bursts
system.mem_ctrls1.perBankRdBursts::25               0                       # Per bank write bursts
system.mem_ctrls1.perBankRdBursts::26               0                       # Per bank write bursts
system.mem_ctrls1.perBankRdBursts::27               0                       # Per bank write bursts
system.mem_ctrls1.perBankRdBursts::28               2                       # Per bank write bursts
system.mem_ctrls1.perBankRdBursts::29               0                       # Per bank write bursts
system.mem_ctrls1.perBankRdBursts::30               0                       # Per bank write bursts
system.mem_ctrls1.perBankRdBursts::31               2                       # Per bank write bursts
system.mem_ctrls1.perBankWrBursts::0                0                       # Per bank write bursts
system.mem_ctrls1.perBankWrBursts::1                0                       # Per bank write bursts
system.mem_ctrls1.perBankWrBursts::2                0                       # Per bank write bursts
system.mem_ctrls1.perBankWrBursts::3                0                       # Per bank write bursts
system.mem_ctrls1.perBankWrBursts::4                0                       # Per bank write bursts
system.mem_ctrls1.perBankWrBursts::5                0                       # Per bank write bursts
system.mem_ctrls1.perBankWrBursts::6                0                       # Per bank write bursts
system.mem_ctrls1.perBankWrBursts::7                0                       # Per bank write bursts
system.mem_ctrls1.perBankWrBursts::8                0                       # Per bank write bursts
system.mem_ctrls1.perBankWrBursts::9                0                       # Per bank write bursts
system.mem_ctrls1.perBankWrBursts::10               0                       # Per bank write bursts
system.mem_ctrls1.perBankWrBursts::11               0                       # Per bank write bursts
system.mem_ctrls1.perBankWrBursts::12               0                       # Per bank write bursts
system.mem_ctrls1.perBankWrBursts::13               0                       # Per bank write bursts
system.mem_ctrls1.perBankWrBursts::14               0                       # Per bank write bursts
system.mem_ctrls1.perBankWrBursts::15               0                       # Per bank write bursts
system.mem_ctrls1.perBankWrBursts::16               0                       # Per bank write bursts
system.mem_ctrls1.perBankWrBursts::17               0                       # Per bank write bursts
system.mem_ctrls1.perBankWrBursts::18               0                       # Per bank write bursts
system.mem_ctrls1.perBankWrBursts::19               0                       # Per bank write bursts
system.mem_ctrls1.perBankWrBursts::20               0                       # Per bank write bursts
system.mem_ctrls1.perBankWrBursts::21               0                       # Per bank write bursts
system.mem_ctrls1.perBankWrBursts::22               0                       # Per bank write bursts
system.mem_ctrls1.perBankWrBursts::23               0                       # Per bank write bursts
system.mem_ctrls1.perBankWrBursts::24               0                       # Per bank write bursts
system.mem_ctrls1.perBankWrBursts::25               0                       # Per bank write bursts
system.mem_ctrls1.perBankWrBursts::26               0                       # Per bank write bursts
system.mem_ctrls1.perBankWrBursts::27               0                       # Per bank write bursts
system.mem_ctrls1.perBankWrBursts::28               0                       # Per bank write bursts
system.mem_ctrls1.perBankWrBursts::29               0                       # Per bank write bursts
system.mem_ctrls1.perBankWrBursts::30               0                       # Per bank write bursts
system.mem_ctrls1.perBankWrBursts::31               0                       # Per bank write bursts
system.mem_ctrls1.numRdRetry                        0                       # Number of times read queue was full causing retry
system.mem_ctrls1.numWrRetry                        0                       # Number of times write queue was full causing retry
system.mem_ctrls1.totGap                       733020                       # Total gap between requests
system.mem_ctrls1.readPktSize::0                    0                       # Read request sizes (log2)
system.mem_ctrls1.readPktSize::1                    0                       # Read request sizes (log2)
system.mem_ctrls1.readPktSize::2                    0                       # Read request sizes (log2)
system.mem_ctrls1.readPktSize::3                    0                       # Read request sizes (log2)
system.mem_ctrls1.readPktSize::4                    0                       # Read request sizes (log2)
system.mem_ctrls1.readPktSize::5                    0                       # Read request sizes (log2)
system.mem_ctrls1.readPktSize::6                   39                       # Read request sizes (log2)
system.mem_ctrls1.writePktSize::0                   0                       # Write request sizes (log2)
system.mem_ctrls1.writePktSize::1                   0                       # Write request sizes (log2)
system.mem_ctrls1.writePktSize::2                   0                       # Write request sizes (log2)
system.mem_ctrls1.writePktSize::3                   0                       # Write request sizes (log2)
system.mem_ctrls1.writePktSize::4                   0                       # Write request sizes (log2)
system.mem_ctrls1.writePktSize::5                   0                       # Write request sizes (log2)
system.mem_ctrls1.writePktSize::6                   0                       # Write request sizes (log2)
system.mem_ctrls1.rdQLenPdf::0                      7                       # What read queue length does an incoming req see
system.mem_ctrls1.rdQLenPdf::1                     10                       # What read queue length does an incoming req see
system.mem_ctrls1.rdQLenPdf::2                      9                       # What read queue length does an incoming req see
system.mem_ctrls1.rdQLenPdf::3                      4                       # What read queue length does an incoming req see
system.mem_ctrls1.rdQLenPdf::4                      7                       # What read queue length does an incoming req see
system.mem_ctrls1.rdQLenPdf::5                      2                       # What read queue length does an incoming req see
system.mem_ctrls1.rdQLenPdf::6                      0                       # What read queue length does an incoming req see
system.mem_ctrls1.rdQLenPdf::7                      0                       # What read queue length does an incoming req see
system.mem_ctrls1.rdQLenPdf::8                      0                       # What read queue length does an incoming req see
system.mem_ctrls1.rdQLenPdf::9                      0                       # What read queue length does an incoming req see
system.mem_ctrls1.rdQLenPdf::10                     0                       # What read queue length does an incoming req see
system.mem_ctrls1.rdQLenPdf::11                     0                       # What read queue length does an incoming req see
system.mem_ctrls1.rdQLenPdf::12                     0                       # What read queue length does an incoming req see
system.mem_ctrls1.rdQLenPdf::13                     0                       # What read queue length does an incoming req see
system.mem_ctrls1.rdQLenPdf::14                     0                       # What read queue length does an incoming req see
system.mem_ctrls1.rdQLenPdf::15                     0                       # What read queue length does an incoming req see
system.mem_ctrls1.rdQLenPdf::16                     0                       # What read queue length does an incoming req see
system.mem_ctrls1.rdQLenPdf::17                     0                       # What read queue length does an incoming req see
system.mem_ctrls1.rdQLenPdf::18                     0                       # What read queue length does an incoming req see
system.mem_ctrls1.rdQLenPdf::19                     0                       # What read queue length does an incoming req see
system.mem_ctrls1.rdQLenPdf::20                     0                       # What read queue length does an incoming req see
system.mem_ctrls1.rdQLenPdf::21                     0                       # What read queue length does an incoming req see
system.mem_ctrls1.rdQLenPdf::22                     0                       # What read queue length does an incoming req see
system.mem_ctrls1.rdQLenPdf::23                     0                       # What read queue length does an incoming req see
system.mem_ctrls1.rdQLenPdf::24                     0                       # What read queue length does an incoming req see
system.mem_ctrls1.rdQLenPdf::25                     0                       # What read queue length does an incoming req see
system.mem_ctrls1.rdQLenPdf::26                     0                       # What read queue length does an incoming req see
system.mem_ctrls1.rdQLenPdf::27                     0                       # What read queue length does an incoming req see
system.mem_ctrls1.rdQLenPdf::28                     0                       # What read queue length does an incoming req see
system.mem_ctrls1.rdQLenPdf::29                     0                       # What read queue length does an incoming req see
system.mem_ctrls1.rdQLenPdf::30                     0                       # What read queue length does an incoming req see
system.mem_ctrls1.rdQLenPdf::31                     0                       # What read queue length does an incoming req see
system.mem_ctrls1.rdQLenPdf::32                     0                       # What read queue length does an incoming req see
system.mem_ctrls1.rdQLenPdf::33                     0                       # What read queue length does an incoming req see
system.mem_ctrls1.rdQLenPdf::34                     0                       # What read queue length does an incoming req see
system.mem_ctrls1.rdQLenPdf::35                     0                       # What read queue length does an incoming req see
system.mem_ctrls1.rdQLenPdf::36                     0                       # What read queue length does an incoming req see
system.mem_ctrls1.rdQLenPdf::37                     0                       # What read queue length does an incoming req see
system.mem_ctrls1.rdQLenPdf::38                     0                       # What read queue length does an incoming req see
system.mem_ctrls1.rdQLenPdf::39                     0                       # What read queue length does an incoming req see
system.mem_ctrls1.rdQLenPdf::40                     0                       # What read queue length does an incoming req see
system.mem_ctrls1.rdQLenPdf::41                     0                       # What read queue length does an incoming req see
system.mem_ctrls1.rdQLenPdf::42                     0                       # What read queue length does an incoming req see
system.mem_ctrls1.rdQLenPdf::43                     0                       # What read queue length does an incoming req see
system.mem_ctrls1.rdQLenPdf::44                     0                       # What read queue length does an incoming req see
system.mem_ctrls1.rdQLenPdf::45                     0                       # What read queue length does an incoming req see
system.mem_ctrls1.rdQLenPdf::46                     0                       # What read queue length does an incoming req see
system.mem_ctrls1.rdQLenPdf::47                     0                       # What read queue length does an incoming req see
[...]
system.l3.demand_mshr_miss_latency::.cpu2.data       697572                       # number of demand (read+write) MSHR miss cycles
system.l3.demand_mshr_miss_latency::.cpu3.inst       799544                       # number of demand (read+write) MSHR miss cycles
system.l3.demand_mshr_miss_latency::.cpu3.data       641257                       # number of demand (read+write) MSHR miss cycles
system.l3.demand_mshr_miss_latency::total      5417937                       # number of demand (read+write) MSHR miss cycles
system.l3.overall_mshr_miss_latency::.cpu0.inst       796455                       # number of overall MSHR miss cycles
system.l3.overall_mshr_miss_latency::.cpu0.data       427371                       # number of overall MSHR miss cycles
system.l3.overall_mshr_miss_latency::.cpu1.inst       793351                       # number of overall MSHR miss cycles
system.l3.overall_mshr_miss_latency::.cpu1.data       435149                       # number of overall MSHR miss cycles
system.l3.overall_mshr_miss_latency::.cpu2.inst       827238                       # number of overall MSHR miss cycles
system.l3.overall_mshr_miss_latency::.cpu2.data       697572                       # number of overall MSHR miss cycles
system.l3.overall_mshr_miss_latency::.cpu3.inst       799544                       # number of overall MSHR miss cycles
system.l3.overall_mshr_miss_latency::.cpu3.data       641257                       # number of overall MSHR miss cycles
system.l3.overall_mshr_miss_latency::total      5417937                       # number of overall MSHR miss cycles
system.l3.ReadExReq_mshr_miss_rate::.cpu0.data            1                       # mshr miss rate for ReadExReq accesses
system.l3.ReadExReq_mshr_miss_rate::.cpu1.data            1                       # mshr miss rate for ReadExReq accesses
system.l3.ReadExReq_mshr_miss_rate::.cpu2.data            1                       # mshr miss rate for ReadExReq accesses
system.l3.ReadExReq_mshr_miss_rate::.cpu3.data            1                       # mshr miss rate for ReadExReq accesses
system.l3.ReadExReq_mshr_miss_rate::total            1                       # mshr miss rate for ReadExReq accesses
system.l3.ReadSharedReq_mshr_miss_rate::.cpu0.inst            1                       # mshr miss rate for ReadSharedReq accesses
system.l3.ReadSharedReq_mshr_miss_rate::.cpu0.data            1                       # mshr miss rate for ReadSharedReq accesses
system.l3.ReadSharedReq_mshr_miss_rate::.cpu1.inst            1                       # mshr miss rate for ReadSharedReq accesses
system.l3.ReadSharedReq_mshr_miss_rate::.cpu1.data            1                       # mshr miss rate for ReadSharedReq accesses
system.l3.ReadSharedReq_mshr_miss_rate::.cpu2.inst            1                       # mshr miss rate for ReadSharedReq accesses
system.l3.ReadSharedReq_mshr_miss_rate::.cpu2.data            1                       # mshr miss rate for ReadSharedReq accesses
system.l3.ReadSharedReq_mshr_miss_rate::.cpu3.inst            1                       # mshr miss rate for ReadSharedReq accesses
system.l3.ReadSharedReq_mshr_miss_rate::.cpu3.data            1                       # mshr miss rate for ReadSharedReq accesses
system.l3.ReadSharedReq_mshr_miss_rate::total            1                       # mshr miss rate for ReadSharedReq accesses
system.l3.demand_mshr_miss_rate::.cpu0.inst            1                       # mshr miss rate for demand accesses
system.l3.demand_mshr_miss_rate::.cpu0.data            1                       # mshr miss rate for demand accesses
system.l3.demand_mshr_miss_rate::.cpu1.inst            1                       # mshr miss rate for demand accesses
system.l3.demand_mshr_miss_rate::.cpu1.data            1                       # mshr miss rate for demand accesses
system.l3.demand_mshr_miss_rate::.cpu2.inst            1                       # mshr miss rate for demand accesses
system.l3.demand_mshr_miss_rate::.cpu2.data            1                       # mshr miss rate for demand accesses
system.l3.demand_mshr_miss_rate::.cpu3.inst            1                       # mshr miss rate for demand accesses
system.l3.demand_mshr_miss_rate::.cpu3.data            1                       # mshr miss rate for demand accesses
system.l3.demand_mshr_miss_rate::total              1                       # mshr miss rate for demand accesses
system.l3.overall_mshr_miss_rate::.cpu0.inst            1                       # mshr miss rate for overall accesses
system.l3.overall_mshr_miss_rate::.cpu0.data            1                       # mshr miss rate for overall accesses
system.l3.overall_mshr_miss_rate::.cpu1.inst            1                       # mshr miss rate for overall accesses
system.l3.overall_mshr_miss_rate::.cpu1.data            1                       # mshr miss rate for overall accesses
system.l3.overall_mshr_miss_rate::.cpu2.inst            1                       # mshr miss rate for overall accesses
system.l3.overall_mshr_miss_rate::.cpu2.data            1                       # mshr miss rate for overall accesses
system.l3.overall_mshr_miss_rate::.cpu3.inst            1                       # mshr miss rate for overall accesses
system.l3.overall_mshr_miss_rate::.cpu3.data            1                       # mshr miss rate for overall accesses
system.l3.overall_mshr_miss_rate::total             1                       # mshr miss rate for overall accesses
system.l3.ReadExReq_avg_mshr_miss_latency::.cpu0.data 65443.250000                       # average ReadExReq mshr miss latency
system.l3.ReadExReq_avg_mshr_miss_latency::.cpu1.data 61379.750000                       # average ReadExReq mshr miss latency
system.l3.ReadExReq_avg_mshr_miss_latency::.cpu2.data 63197.400000                       # average ReadExReq mshr miss latency
system.l3.ReadExReq_avg_mshr_miss_latency::.cpu3.data 89503.250000                       # average ReadExReq mshr miss latency
system.l3.ReadExReq_avg_mshr_miss_latency::total 69487.764706                       # average ReadExReq mshr miss latency
system.l3.ReadSharedReq_avg_mshr_miss_latency::.cpu0.inst 79645.500000                       # average ReadSharedReq mshr miss latency
system.l3.ReadSharedReq_avg_mshr_miss_latency::.cpu0.data 33119.600000                       # average ReadSharedReq mshr miss latency
system.l3.ReadSharedReq_avg_mshr_miss_latency::.cpu1.inst 79335.100000                       # average ReadSharedReq mshr miss latency
system.l3.ReadSharedReq_avg_mshr_miss_latency::.cpu1.data        37926                       # average ReadSharedReq mshr miss latency
system.l3.ReadSharedReq_avg_mshr_miss_latency::.cpu2.inst 75203.454545                       # average ReadSharedReq mshr miss latency
system.l3.ReadSharedReq_avg_mshr_miss_latency::.cpu2.data 54512.142857                       # average ReadSharedReq mshr miss latency
system.l3.ReadSharedReq_avg_mshr_miss_latency::.cpu3.inst 79954.400000                       # average ReadSharedReq mshr miss latency
system.l3.ReadSharedReq_avg_mshr_miss_latency::.cpu3.data 56648.800000                       # average ReadSharedReq mshr miss latency
system.l3.ReadSharedReq_avg_mshr_miss_latency::total 67248.333333                       # average ReadSharedReq mshr miss latency
system.l3.demand_avg_mshr_miss_latency::.cpu0.inst 79645.500000                       # average overall mshr miss latency
system.l3.demand_avg_mshr_miss_latency::.cpu0.data 47485.666667                       # average overall mshr miss latency
system.l3.demand_avg_mshr_miss_latency::.cpu1.inst 79335.100000                       # average overall mshr miss latency
system.l3.demand_avg_mshr_miss_latency::.cpu1.data 48349.888889                       # average overall mshr miss latency
system.l3.demand_avg_mshr_miss_latency::.cpu2.inst 75203.454545                       # average overall mshr miss latency
system.l3.demand_avg_mshr_miss_latency::.cpu2.data        58131                       # average overall mshr miss latency
system.l3.demand_avg_mshr_miss_latency::.cpu3.inst 79954.400000                       # average overall mshr miss latency
system.l3.demand_avg_mshr_miss_latency::.cpu3.data 71250.777778                       # average overall mshr miss latency
system.l3.demand_avg_mshr_miss_latency::total 67724.212500                       # average overall mshr miss latency
system.l3.overall_avg_mshr_miss_latency::.cpu0.inst 79645.500000                       # average overall mshr miss latency
system.l3.overall_avg_mshr_miss_latency::.cpu0.data 47485.666667                       # average overall mshr miss latency
system.l3.overall_avg_mshr_miss_latency::.cpu1.inst 79335.100000                       # average overall mshr miss latency
system.l3.overall_avg_mshr_miss_latency::.cpu1.data 48349.888889                       # average overall mshr miss latency
system.l3.overall_avg_mshr_miss_latency::.cpu2.inst 75203.454545                       # average overall mshr miss latency
system.l3.overall_avg_mshr_miss_latency::.cpu2.data        58131                       # average overall mshr miss latency
system.l3.overall_avg_mshr_miss_latency::.cpu3.inst 79954.400000                       # average overall mshr miss latency
system.l3.overall_avg_mshr_miss_latency::.cpu3.data 71250.777778                       # average overall mshr miss latency
system.l3.overall_avg_mshr_miss_latency::total 67724.212500                       # average overall mshr miss latency
system.l3.replacements                              0                       # number of replacements
system.membus.snoop_filter.tot_requests            78                       # Total number of requests made to the snoop filter.
system.membus.snoop_filter.hit_single_requests            0                       # Number of requests hitting in the snoop filter with a single holder of the requested data.
system.membus.snoop_filter.hit_multi_requests            0                       # Number of requests hitting in the snoop filter with multiple (>1) holders of the requested data.
system.membus.snoop_filter.tot_snoops               0                       # Total number of snoops made to the snoop filter.
system.membus.snoop_filter.hit_single_snoops            0                       # Number of snoops hitting in the snoop filter with a single holder of the requested data.
system.membus.snoop_filter.hit_multi_snoops            0                       # Number of snoops hitting in the snoop filter with multiple (>1) holders of the requested data.
system.membus.pwrStateResidencyTicks::UNDEFINED       775890                       # Cumulative time (in ticks) in various power states
system.membus.trans_dist::ReadResp                 50                       # Transaction distribution
system.membus.trans_dist::ReadExReq                16                       # Transaction distribution
system.membus.trans_dist::ReadExResp               14                       # Transaction distribution
system.membus.trans_dist::ReadSharedReq            62                       # Transaction distribution
system.membus.pkt_count_system.l3.mem_side::system.mem_ctrls0.port           70                       # Packet count per connected master and slave (bytes)
system.membus.pkt_count_system.l3.mem_side::system.mem_ctrls1.port           72                       # Packet count per connected master and slave (bytes)
system.membus.pkt_count_system.l3.mem_side::total          142                       # Packet count per connected master and slave (bytes)
system.membus.pkt_count::total                    142                       # Packet count per connected master and slave (bytes)
system.membus.pkt_size_system.l3.mem_side::system.mem_ctrls0.port         1984                       # Cumulative packet size per connected master and slave (bytes)
system.membus.pkt_size_system.l3.mem_side::system.mem_ctrls1.port         2112                       # Cumulative packet size per connected master and slave (bytes)
system.membus.pkt_size_system.l3.mem_side::total         4096                       # Cumulative packet size per connected master and slave (bytes)
system.membus.pkt_size::total                    4096                       # Cumulative packet size per connected master and slave (bytes)
system.membus.snoops                                0                       # Total snoops (count)
system.membus.snoopTraffic                          0                       # Total snoop traffic (bytes)
system.membus.snoop_fanout::samples                78                       # Request fanout histogram
system.membus.snoop_fanout::mean                    0                       # Request fanout histogram
system.membus.snoop_fanout::stdev                   0                       # Request fanout histogram
system.membus.snoop_fanout::underflows              0      0.00%      0.00% # Request fanout histogram
system.membus.snoop_fanout::0                      78    100.00%    100.00% # Request fanout histogram
system.membus.snoop_fanout::1                       0      0.00%    100.00% # Request fanout histogram
system.membus.snoop_fanout::overflows               0      0.00%    100.00% # Request fanout histogram
system.membus.snoop_fanout::min_value               0                       # Request fanout histogram
system.membus.snoop_fanout::max_value               0                       # Request fanout histogram
system.membus.snoop_fanout::total                  78                       # Request fanout histogram
system.membus.reqLayer8.occupancy               56405                       # Layer occupancy (ticks)
system.membus.reqLayer8.utilization               7.3                       # Layer utilization (%)
system.membus.reqLayer9.occupancy               51816                       # Layer occupancy (ticks)
system.membus.reqLayer9.utilization               6.7                       # Layer utilization (%)
system.membus.respLayer1.occupancy             331034                       # Layer occupancy (ticks)
system.membus.respLayer1.utilization             42.7                       # Layer utilization (%)
system.tol3bus.snoop_filter.tot_requests           80                       # Total number of requests made to the snoop filter.
system.tol3bus.snoop_filter.hit_single_requests            0                       # Number of requests hitting in the snoop filter with a single holder of the requested data.
system.tol3bus.snoop_filter.hit_multi_requests            0                       # Number of requests hitting in the snoop filter with multiple (>1) holders of the requested data.
system.tol3bus.snoop_filter.tot_snoops              0                       # Total number of snoops made to the snoop filter.
system.tol3bus.snoop_filter.hit_single_snoops            0                       # Number of snoops hitting in the snoop filter with a single holder of the requested data.
system.tol3bus.snoop_filter.hit_multi_snoops            0                       # Number of snoops hitting in the snoop filter with multiple (>1) holders of the requested data.
system.tol3bus.pwrStateResidencyTicks::UNDEFINED       775890                       # Cumulative time (in ticks) in various power states
system.tol3bus.trans_dist::ReadResp                48                       # Transaction distribution
system.tol3bus.trans_dist::ReadExReq               17                       # Transaction distribution
system.tol3bus.trans_dist::ReadExResp              13                       # Transaction distribution
system.tol3bus.trans_dist::ReadSharedReq           63                       # Transaction distribution
system.tol3bus.pkt_count_system.cpu0.l2cache.mem_side::system.l3.cpu_side           33                       # Packet count per connected master and slave (bytes)
system.tol3bus.pkt_count_system.cpu1.l2cache.mem_side::system.l3.cpu_side           33                       # Packet count per connected master and slave (bytes)
system.tol3bus.pkt_count_system.cpu2.l2cache.mem_side::system.l3.cpu_side           42                       # Packet count per connected master and slave (bytes)
system.tol3bus.pkt_count_system.cpu3.l2cache.mem_side::system.l3.cpu_side           33                       # Packet count per connected master and slave (bytes)
system.tol3bus.pkt_count::total                   141                       # Packet count per connected master and slave (bytes)
system.tol3bus.pkt_size_system.cpu0.l2cache.mem_side::system.l3.cpu_side          896                       # Cumulative packet size per connected master and slave (bytes)
system.tol3bus.pkt_size_system.cpu1.l2cache.mem_side::system.l3.cpu_side          896                       # Cumulative packet size per connected master and slave (bytes)
system.tol3bus.pkt_size_system.cpu2.l2cache.mem_side::system.l3.cpu_side         1216                       # Cumulative packet size per connected master and slave (bytes)
system.tol3bus.pkt_size_system.cpu3.l2cache.mem_side::system.l3.cpu_side          896                       # Cumulative packet size per connected master and slave (bytes)
system.tol3bus.pkt_size::total                   3904                       # Cumulative packet size per connected master and slave (bytes)
system.tol3bus.snoops                               0                       # Total snoops (count)
system.tol3bus.snoopTraffic                         0                       # Total snoop traffic (bytes)
system.tol3bus.snoop_fanout::samples               80                       # Request fanout histogram
system.tol3bus.snoop_fanout::mean                   0                       # Request fanout histogram
system.tol3bus.snoop_fanout::stdev                  0                       # Request fanout histogram
system.tol3bus.snoop_fanout::underflows             0      0.00%      0.00% # Request fanout histogram
system.tol3bus.snoop_fanout::0                     80    100.00%    100.00% # Request fanout histogram
system.tol3bus.snoop_fanout::1                      0      0.00%    100.00% # Request fanout histogram
system.tol3bus.snoop_fanout::2                      0      0.00%    100.00% # Request fanout histogram
system.tol3bus.snoop_fanout::3                      0      0.00%    100.00% # Request fanout histogram
system.tol3bus.snoop_fanout::4                      0      0.00%    100.00% # Request fanout histogram
system.tol3bus.snoop_fanout::overflows              0      0.00%    100.00% # Request fanout histogram
system.tol3bus.snoop_fanout::min_value              0                       # Request fanout histogram
system.tol3bus.snoop_fanout::max_value              0                       # Request fanout histogram
system.tol3bus.snoop_fanout::total                 80                       # Request fanout histogram
system.tol3bus.reqLayer0.occupancy              26640                       # Layer occupancy (ticks)
system.tol3bus.reqLayer0.utilization              3.4                       # Layer utilization (%)
system.tol3bus.respLayer0.occupancy             13986                       # Layer occupancy (ticks)
system.tol3bus.respLayer0.utilization             1.8                       # Layer utilization (%)
system.tol3bus.respLayer1.occupancy             13986                       # Layer occupancy (ticks)
system.tol3bus.respLayer1.utilization             1.8                       # Layer utilization (%)
system.tol3bus.respLayer2.occupancy             18981                       # Layer occupancy (ticks)
system.tol3bus.respLayer2.utilization             2.4                       # Layer utilization (%)
system.tol3bus.respLayer3.occupancy             13986                       # Layer occupancy (ticks)
system.tol3bus.respLayer3.utilization             1.8                       # Layer utilization (%)

---------- End Simulation Statistics   ----------
