
---------- Begin Simulation Statistics ----------
sim_seconds                                  0.000001                       # Number of seconds simulated
sim_ticks                                      650000                       # Number of ticks simulated
final_tick                                     650000                       # Number of ticks from beginning of simulation (restored from checkpoints and never reset)
sim_freq                                 1000000000000                       # Frequency of simulated ticks
host_inst_rate                                  10908                       # Simulator instruction rate (inst/s)
host_op_rate                                    19673                       # Simulator op (including micro ops) rate (op/s)
host_tick_rate                               38503028                       # Simulator tick rate (ticks/s)
host_mem_usage                               16963744                       # Number of bytes of host memory used
host_seconds                                     0.02                       # Real time elapsed on the host
sim_insts                                         184                       # Number of instructions simulated
sim_ops                                           332                       # Number of ops (including micro ops) simulated
system.voltage_domain.voltage                       1                       # Voltage in Volts
system.clk_domain.clock                          1000                       # Clock period in ticks
system.mem_ctrls0.pwrStateResidencyTicks::UNDEFINED       650000                       # Cumulative time (in ticks) in various power states
system.mem_ctrls0.bytes_read::.cpu0.inst          256                       # Number of bytes read from this memory
system.mem_ctrls0.bytes_read::.cpu0.data          192                       # Number of bytes read from this memory
system.mem_ctrls0.bytes_read::.cpu1.inst          256                       # Number of bytes read from this memory
system.mem_ctrls0.bytes_read::.cpu1.data          128                       # Number of bytes read from this memory
system.mem_ctrls0.bytes_read::.cpu2.inst          320                       # Number of bytes read from this memory
system.mem_ctrls0.bytes_read::.cpu2.data          256                       # Number of bytes read from this memory
system.mem_ctrls0.bytes_read::.cpu3.inst          320                       # Number of bytes read from this memory
system.mem_ctrls0.bytes_read::.cpu3.data          192                       # Number of bytes read from this memory
system.mem_ctrls0.bytes_read::total              1920                       # Number of bytes read from this memory
system.mem_ctrls0.bytes_inst_read::.cpu0.inst          256                       # Number of instructions bytes read from this memory
system.mem_ctrls0.bytes_inst_read::.cpu1.inst          256                       # Number of instructions bytes read from this memory
system.mem_ctrls0.bytes_inst_read::.cpu2.inst          320                       # Number of instructions bytes read from this memory
system.mem_ctrls0.bytes_inst_read::.cpu3.inst          320                       # Number of instructions bytes read from this memory
system.mem_ctrls0.bytes_inst_read::total         1152                       # Number of instructions bytes read from this memory
system.mem_ctrls0.num_reads::.cpu0.inst             4                       # Number of read requests responded to by this memory
system.mem_ctrls0.num_reads::.cpu0.data             3                       # Number of read requests responded to by this memory
system.mem_ctrls0.num_reads::.cpu1.inst             4                       # Number of read requests responded to by this memory
system.mem_ctrls0.num_reads::.cpu1.data             2                       # Number of read requests responded to by this memory
system.mem_ctrls0.num_reads::.cpu2.inst             5                       # Number of read requests responded to by this memory
system.mem_ctrls0.num_reads::.cpu2.data             4                       # Number of read requests responded to by this memory
system.mem_ctrls0.num_reads::.cpu3.inst             5                       # Number of read requests responded to by this memory
system.mem_ctrls0.num_reads::.cpu3.data             3                       # Number of read requests responded to by this memory
system.mem_ctrls0.num_reads::total                 30                       # Number of read requests responded to by this memory
system.mem_ctrls0.bw_read::.cpu0.inst       393846154                       # Total read bandwidth from this memory (bytes/s)
system.mem_ctrls0.bw_read::.cpu0.data       295384615                       # Total read bandwidth from this memory (bytes/s)
system.mem_ctrls0.bw_read::.cpu1.inst       393846154                       # Total read bandwidth from this memory (bytes/s)
system.mem_ctrls0.bw_read::.cpu1.data       196923077                       # Total read bandwidth from this memory (bytes/s)
system.mem_ctrls0.bw_read::.cpu2.inst       492307692                       # Total read bandwidth from this memory (bytes/s)
system.mem_ctrls0.bw_read::.cpu2.data       393846154                       # Total read bandwidth from this memory (bytes/s)
system.mem_ctrls0.bw_read::.cpu3.inst       492307692                       # Total read bandwidth from this memory (bytes/s)
system.mem_ctrls0.bw_read::.cpu3.data       295384615                       # Total read bandwidth from this memory (bytes/s)
system.mem_ctrls0.bw_read::total           2953846154                       # Total read bandwidth from this memory (bytes/s)
system.mem_ctrls0.bw_inst_read::.cpu0.inst    393846154                       # Instruction read bandwidth from this memory (bytes/s)
system.mem_ctrls0.bw_inst_read::.cpu1.inst    393846154                       # Instruction read bandwidth from this memory (bytes/s)
system.mem_ctrls0.bw_inst_read::.cpu2.inst    492307692                       # Instruction read bandwidth from this memory (bytes/s)
system.mem_ctrls0.bw_inst_read::.cpu3.inst    492307692                       # Instruction read bandwidth from this memory (bytes/s)
system.mem_ctrls0.bw_inst_read::total      1772307692                       # Instruction read bandwidth from this memory (bytes/s)
system.mem_ctrls0.bw_total::.cpu0.inst      393846154                       # Total bandwidth to/from this memory (bytes/s)
system.mem_ctrls0.bw_total::.cpu0.data      295384615                       # Total bandwidth to/from this memory (bytes/s)
system.mem_ctrls0.bw_total::.cpu1.inst      393846154                       # Total bandwidth to/from this memory (bytes/s)
system.mem_ctrls0.bw_total::.cpu1.data      196923077                       # Total bandwidth to/from this memory (bytes/s)
system.mem_ctrls0.bw_total::.cpu2.inst      492307692                       # Total bandwidth to/from this memory (bytes/s)
system.mem_ctrls0.bw_total::.cpu2.data      393846154                       # Total bandwidth to/from this memory (bytes/s)
system.mem_ctrls0.bw_total::.cpu3.inst      492307692                       # Total bandwidth to/from this memory (bytes/s)
system.mem_ctrls0.bw_total::.cpu3.data      295384615                       # Total bandwidth to/from this memory (bytes/s)
system.mem_ctrls0.bw_total::total          2953846154                       # Total bandwidth to/from this memory (bytes/s)
system.mem_ctrls0.avgPriority_.cpu0.inst::samples         5.00                       # Average QoS priority value for accepted requests
system.mem_ctrls0.avgPriority_.cpu0.data::samples         4.00                       # Average QoS priority value for accepted requests
system.mem_ctrls0.avgPriority_.cpu1.inst::samples         4.00                       # Average QoS priority value for accepted requests
system.mem_ctrls0.avgPriority_.cpu1.data::samples         3.00                       # Average QoS priority value for accepted requests
system.mem_ctrls0.avgPriority_.cpu2.inst::samples         6.00                       # Average QoS priority value for accepted requests
system.mem_ctrls0.avgPriority_.cpu2.data::samples         4.00                       # Average QoS priority value for accepted requests
system.mem_ctrls0.avgPriority_.cpu3.inst::samples         5.00                       # Average QoS priority value for accepted requests
system.mem_ctrls0.avgPriority_.cpu3.data::samples         5.00                       # Average QoS priority value for accepted requests
system.mem_ctrls0.priorityMinLatency     0.000000017860                       # per QoS priority minimum request to response latency (s)
system.mem_ctrls0.priorityMaxLatency     0.000000069632                       # per QoS priority maximum request to response latency (s)
system.mem_ctrls0.numReadWriteTurnArounds            0                       # Number of turnarounds from READ to WRITE
system.mem_ctrls0.numWriteReadTurnArounds            0                       # Number of turnarounds from WRITE to READ
system.mem_ctrls0.numStayReadState                 67                       # Number of times bus staying in READ state
system.mem_ctrls0.numStayWriteState                 0                       # Number of times bus staying in WRITE state
system.mem_ctrls0.readReqs                         36                       # Number of read requests accepted
system.mem_ctrls0.writeReqs                         0                       # Number of write requests accepted
system.mem_ctrls0.readBursts                       36                       # Number of DRAM read bursts, including those serviced by the write queue
system.mem_ctrls0.writeBursts                       0                       # Number of DRAM write bursts, including those merged in the write queue
system.mem_ctrls0.bytesReadDRAM                  2176                       # Total number of bytes read from DRAM
system.mem_ctrls0.bytesReadWrQ                      0                       # Total number of bytes read from write queue
system.mem_ctrls0.bytesWritten                      0                       # Total number of bytes written to DRAM
system.mem_ctrls0.bytesReadSys                   2304                       # Total read bytes from the system interface side
system.mem_ctrls0.bytesWrittenSys                   0                       # Total written bytes from the system interface side
system.mem_ctrls0.servicedByWrQ                     0                       # Number of DRAM read bursts serviced by the write queue
system.mem_ctrls0.mergedWrBursts                    0                       # Number of DRAM write bursts merged with an existing one
system.mem_ctrls0.neitherReadNorWriteReqs            0                       # Number of requests that are neither read nor write
system.mem_ctrls0.perBankRdBursts::0                3                       # Per bank write bursts
system.mem_ctrls0.perBankRdBursts::1                0                       # Per bank write bursts
system.mem_ctrls0.perBankRdBursts::2                0                       # Per bank write bursts
system.mem_ctrls0.perBankRdBursts::3                3                       # Per bank write bursts
system.mem_ctrls0.perBankRdBursts::4                3                       # Per bank write bursts
system.mem_ctrls0.perBankRdBursts::5                0                       # Per bank write bursts
system.mem_ctrls0.perBankRdBursts::6                1                       # Per bank write bursts
system.mem_ctrls0.perBankRdBursts::7                0                       # Per bank write bursts
system.mem_ctrls0.perBankRdBursts::8                0                       # Per bank write bursts
system.mem_ctrls0.perBankRdBursts::9                0                       # Per bank write bursts
system.mem_ctrls0.perBankRdBursts::10               1                       # Per bank write bursts
system.mem_ctrls0.perBankRdBursts::11               3                       # Per bank write bursts
system.mem_ctrls0.perBankRdBursts::12               0                       # Per bank write bursts
system.mem_ctrls0.perBankRdBursts::13               0                       # Per bank write bursts
system.mem_ctrls0.perBankRdBursts::14               2                       # Per bank write bursts
system.mem_ctrls0.perBankRdBursts::15               0                       # Per bank write bursts
system.mem_ctrls0.perBankRdBursts::16               2                       # Per bank write bursts
system.mem_ctrls0.perBankRdBursts::17               0                       # Per bank write bursts
system.mem_ctrls0.perBankRdBursts::18               2                       # Per bank write bursts
system.mem_ctrls0.perBankRdBursts::19               0                       # Per bank write bursts
system.mem_ctrls0.perBankRdBursts::20               2                       # Per bank write bursts
system.mem_ctrls0.perBankRdBursts::21               4                       # Per bank write bursts
system.mem_ctrls0.perBankRdBursts::22               3                       # Per bank write bursts
system.mem_ctrls0.perBankRdBursts::23               0                       # Per bank write bursts
system.mem_ctrls0.perBankRdBursts::24               3                       # Per bank write bursts
system.mem_ctrls0.perBankRdBursts::25               0                       # Per bank write bursts
system.mem_ctrls0.perBankRdBursts::26               0                       # Per bank write bursts
system.mem_ctrls0.perBankRdBursts::27               0                       # Per bank write bursts
system.mem_ctrls0.perBankRdBursts::28               1                       # Per bank write bursts
system.mem_ctrls0.perBankRdBursts::29               0                       # Per bank write bursts
system.mem_ctrls0.perBankRdBursts::30               0                       # Per bank write bursts
system.mem_ctrls0.perBankRdBursts::31               1                       # Per bank write bursts
system.mem_ctrls0.perBankWrBursts::0                0                       # Per bank write bursts
system.mem_ctrls0.perBankWrBursts::1                0                       # Per bank write bursts
system.mem_ctrls0.perBankWrBursts::2                0                       # Per bank write bursts
system.mem_ctrls0.perBankWrBursts::3                0                       # Per bank write bursts
system.mem_ctrls0.perBankWrBursts::4                0                       # Per bank write bursts
system.mem_ctrls0.perBankWrBursts::5                0                       # Per bank write bursts
system.mem_ctrls0.perBankWrBursts::6                0                       # Per bank write bursts
system.mem_ctrls0.perBankWrBursts::7                0                       # Per bank write bursts
system.mem_ctrls0.perBankWrBursts::8                0                       # Per bank write bursts
system.mem_ctrls0.perBankWrBursts::9                0                       # Per bank write bursts
system.mem_ctrls0.perBankWrBursts::10               0                       # Per bank write bursts
system.mem_ctrls0.perBankWrBursts::11               0                       # Per bank write bursts
system.mem_ctrls0.perBankWrBursts::12               0                       # Per bank write bursts
system.mem_ctrls0.perBankWrBursts::13               0                       # Per bank write bursts
system.mem_ctrls0.perBankWrBursts::14               0                       # Per bank write bursts
system.mem_ctrls0.perBankWrBursts::15               0                       # Per bank write bursts
system.mem_ctrls0.perBankWrBursts::16               0                       # Per bank write bursts
system.mem_ctrls0.perBankWrBursts::17               0                       # Per bank write bursts
system.mem_ctrls0.perBankWrBursts::18               0                       # Per bank write bursts
system.mem_ctrls0.perBankWrBursts::19               0                       # Per bank write bursts
system.mem_ctrls0.perBankWrBursts::20               0                       # Per bank write bursts
system.mem_ctrls0.perBankWrBursts::21               0                       # Per bank write bursts
system.mem_ctrls0.perBankWrBursts::22               0                       # Per bank write bursts
system.mem_ctrls0.perBankWrBursts::23               0                       # Per bank write bursts
system.mem_ctrls0.perBankWrBursts::24               0                       # Per bank write bursts
system.mem_ctrls0.perBankWrBursts::25               0                       # Per bank write bursts
system.mem_ctrls0.perBankWrBursts::26               0                       # Per bank write bursts
system.mem_ctrls0.perBankWrBursts::27               0                       # Per bank write bursts
system.mem_ctrls0.perBankWrBursts::28               0                       # Per bank write bursts
system.mem_ctrls0.perBankWrBursts::29               0                       # Per bank write bursts
system.mem_ctrls0.perBankWrBursts::30               0                       # Per bank write bursts
system.mem_ctrls0.perBankWrBursts::31               0                       # Per bank write bursts
system.mem_ctrls0.numRdRetry                        0                       # Number of times read queue was full causing retry
system.mem_ctrls0.numWrRetry                        0                       # Number of times write queue was full causing retry
system.mem_ctrls0.totGap                       633984                       # Total gap between requests
system.mem_ctrls0.readPktSize::0                    0                       # Read request sizes (log2)
system.mem_ctrls0.readPktSize::1                    0                       # Read request sizes (log2)
system.mem_ctrls0.readPktSize::2                    0                       # Read request sizes (log2)
system.mem_ctrls0.readPktSize::3                    0                       # Read request sizes (log2)
system.mem_ctrls0.readPktSize::4                    0                       # Read request sizes (log2)
system.mem_ctrls0.readPktSize::5                    0                       # Read request sizes (log2)
system.mem_ctrls0.readPktSize::6                   36                       # Read request sizes (log2)
system.mem_ctrls0.writePktSize::0                   0                       # Write request sizes (log2)
system.mem_ctrls0.writePktSize::1                   0                       # Write request sizes (log2)
system.mem_ctrls0.writePktSize::2                   0                       # Write request sizes (log2)
system.mem_ctrls0.writePktSize::3                   0                       # Write request sizes (log2)
system.mem_ctrls0.writePktSize::4                   0                       # Write request sizes (log2)
system.mem_ctrls0.writePktSize::5                   0                       # Write request sizes (log2)
system.mem_ctrls0.writePktSize::6                   0                       # Write request sizes (log2)
system.mem_ctrls0.rdQLenPdf::0                      7                       # What read queue length does an incoming req see
system.mem_ctrls0.rdQLenPdf::1                     10                       # What read queue length does an incoming req see
system.mem_ctrls0.rdQLenPdf::2                      6                       # What read queue length does an incoming req see
system.mem_ctrls0.rdQLenPdf::3                      6                       # What read queue length does an incoming req see
system.mem_ctrls0.rdQLenPdf::4                      4                       # What read queue length does an incoming req see
system.mem_ctrls0.rdQLenPdf::5                      1                       # What read queue length does an incoming req see
system.mem_ctrls0.rdQLenPdf::6                      2                       # What read queue length does an incoming req see
system.mem_ctrls0.rdQLenPdf::7                      0                       # What read queue length does an incoming req see
system.mem_ctrls0.rdQLenPdf::8                      0                       # What read queue length does an incoming req see
system.mem_ctrls0.rdQLenPdf::9                      0                       # What read queue length does an incoming req see
system.mem_ctrls0.rdQLenPdf::10                     0                       # What read queue length does an incoming req see
system.mem_ctrls0.rdQLenPdf::11                     0                       # What read queue length does an incoming req see
system.mem_ctrls0.rdQLenPdf::12                     0                       # What read queue length does an incoming req see
system.mem_ctrls0.rdQLenPdf::13                     0                       # What read queue length does an incoming req see
system.mem_ctrls0.rdQLenPdf::14                     0                       # What read queue length does an incoming req see
system.mem_ctrls0.rdQLenPdf::15                     0                       # What read queue length does an incoming req see
system.mem_ctrls0.rdQLenPdf::16                     0                       # What read queue length does an incoming req see
system.mem_ctrls0.rdQLenPdf::17                     0                       # What read queue length does an incoming req see
system.mem_ctrls0.rdQLenPdf::18                     0                       # What read queue length does an incoming req see
system.mem_ctrls0.rdQLenPdf::19                     0                       # What read queue length does an incoming req see
system.mem_ctrls0.rdQLenPdf::20                     0                       # What read queue length does an incoming req see
system.mem_ctrls0.rdQLenPdf::21                     0                       # What read queue length does an incoming req see
system.mem_ctrls0.rdQLenPdf::22                     0                       # What read queue length does an incoming req see
system.mem_ctrls0.rdQLenPdf::23                     0                       # What read queue length does an incoming req see
system.mem_ctrls0.rdQLenPdf::24                     0                       # What read queue length does an incoming req see
system.mem_ctrls0.rdQLenPdf::25                     0                       # What read queue length does an incoming req see
system.mem_ctrls0.rdQLenPdf::26                     0                       # What read queue length does an incoming req see
system.mem_ctrls0.rdQLenPdf::27                     0                       # What read queue length does an incoming req see
system.mem_ctrls0.rdQLenPdf::28                     0                       # What read queue length does an incoming req see
system.mem_ctrls0.rdQLenPdf::29                     0                       # What read queue length does an incoming req see
system.mem_ctrls0.rdQLenPdf::30                     0                       # What read queue length does an incoming req see
system.mem_ctrls0.rdQLenPdf::31                     0                       # What read queue length does an incoming req see
system.mem_ctrls0.rdQLenPdf::32                     0                       # What read queue length does an incoming req see
system.mem_ctrls0.rdQLenPdf::33                     0                       # What read queue length does an incoming req see
system.mem_ctrls0.rdQLenPdf::34                     0                       # What read queue length does an incoming req see
system.mem_ctrls0.rdQLenPdf::35                     0                       # What read queue length does an incoming req see
system.mem_ctrls0.rdQLenPdf::36                     0                       # What read queue length does an incoming req see
system.mem_ctrls0.rdQLenPdf::37                     0                       # What read queue length does an incoming req see
system.mem_ctrls0.rdQLenPdf::38                     0                       # What read queue length does an incoming req see
system.mem_ctrls0.rdQLenPdf::39                     0                       # What read queue length does an incoming req see
system.mem_ctrls0.rdQLenPdf::40                     0                       # What read queue length does an incoming req see
system.mem_ctrls0.rdQLenPdf::41                     0                       # What read queue length does an incoming req see
system.mem_ctrls0.rdQLenPdf::42                     0                       # What read queue length does an incoming req see
system.mem_ctrls0.rdQLenPdf::43                     0                       # What read queue length does an incoming req see
system.mem_ctrls0.rdQLenPdf::44                     0                       # What read queue length does an incoming req see
system.mem_ctrls0.rdQLenPdf::45                     0                       # What read queue length does an incoming req see
system.mem_ctrls0.rdQLenPdf::46                     0                       # What read queue length does an incoming req see
system.mem_ctrls0.rdQLenPdf::47                     0                       # What read queue length does an incoming req see
system.mem_ctrls0.rdQLenPdf::48                     0                       # What read queue length does an incoming req see
system.mem_ctrls0.rdQLenPdf::49                     0                       # What read queue length does an incoming req see
system.mem_ctrls0.rdQLenPdf::50                     0                       # What read queue length does an incoming req see
system.mem_ctrls0.rdQLenPdf::51                     0                       # What read queue length does an incoming req see
system.mem_ctrls0.rdQLenPdf::52                     0                       # What read queue length does an incoming req see
system.mem_ctrls0.rdQLenPdf::53                     0                       # What read queue length does an incoming req see
system.mem_ctrls0.rdQLenPdf::54                     0                       # What read queue length does an incoming req see
system.mem_ctrls0.rdQLenPdf::55                     0                       # What read queue length does an incoming req see
system.mem_ctrls0.rdQLenPdf::56                     0                       # What read queue length does an incoming req see
system.mem_ctrls0.rdQLenPdf::57                     0                       # What read queue length does an incoming req see
system.mem_ctrls0.rdQLenPdf::58                     0                       # What read queue length does an incoming req see
system.mem_ctrls0.rdQLenPdf::59                     0                       # What read queue length does an incoming req see
system.mem_ctrls0.rdQLenPdf::60                     0                       # What read queue length does an incoming req see
system.mem_ctrls0.rdQLenPdf::61                     0                       # What read queue length does an incoming req see
system.mem_ctrls0.rdQLenPdf::62                     0                       # What read queue length does an incoming req see
system.mem_ctrls0.rdQLenPdf::63                     0                       # What read queue length does an incoming req see
system.mem_ctrls0.wrQLenPdf::0                      0                       # What write queue length does an incoming req see
system.mem_ctrls0.wrQLenPdf::1                      0                       # What write queue length does an incoming req see
system.mem_ctrls0.wrQLenPdf::2                      0                       # What write queue length does an incoming req see
system.mem_ctrls0.wrQLenPdf::3                      0                       # What write queue length does an incoming req see
system.mem_ctrls0.wrQLenPdf::4                      0                       # What write queue length does an incoming req see
system.mem_ctrls0.wrQLenPdf::5                      0                       # What write queue length does an incoming req see
system.mem_ctrls0.wrQLenPdf::6                      0                       # What write queue length does an incoming req see
system.mem_ctrls0.wrQLenPdf::7                      0                       # What write queue length does an incoming req see
system.mem_ctrls0.wrQLenPdf::8                      0                       # What write queue length does an incoming req see
system.mem_ctrls0.wrQLenPdf::9                      0                       # What write queue length does an incoming req see
system.mem_ctrls0.wrQLenPdf::10                     0                       # What write queue length does an incoming req see
system.mem_ctrls0.wrQLenPdf::11                     0                       # What write queue length does an incoming req see
system.mem_ctrls0.wrQLenPdf::12                     0                       # What write queue length does an incoming req see
system.mem_ctrls0.wrQLenPdf::13                     0                       # What write queue length does an incoming req see
system.mem_ctrls0.wrQLenPdf::14                     0                       # What write queue length does an incoming req see
system.mem_ctrls0.wrQLenPdf::15                     0                       # What write queue length does an incoming req see
system.mem_ctrls0.wrQLenPdf::16                     0                       # What write queue length does an incoming req see
system.mem_ctrls0.wrQLenPdf::17                     0                       # What write queue length does an incoming req see
system.mem_ctrls0.wrQLenPdf::18                     0                       # What write queue length does an incoming req see
system.mem_ctrls0.wrQLenPdf::19                     0                       # What write queue length does an incoming req see
system.mem_ctrls0.wrQLenPdf::20                     0                       # What write queue length does an incoming req see
system.mem_ctrls0.wrQLenPdf::21                     0                       # What write queue length does an incoming req see
system.mem_ctrls0.wrQLenPdf::22                     0                       # What write queue length does an incoming req see
system.mem_ctrls0.wrQLenPdf::23                     0                       # What write queue length does an incoming req see
system.mem_ctrls0.wrQLenPdf::24                     0                       # What write queue length does an incoming req see
system.mem_ctrls0.wrQLenPdf::25                     0                       # What write queue length does an incoming req see
system.mem_ctrls0.wrQLenPdf::26                     0                       # What write queue length does an incoming req see
system.mem_ctrls0.wrQLenPdf::27                     0                       # What write queue length does an incoming req see
system.mem_ctrls0.wrQLenPdf::28                     0                       # What write queue length does an incoming req see
system.mem_ctrls0.wrQLenPdf::29                     0                       # What write queue length does an incoming req see
system.mem_ctrls0.wrQLenPdf::30                     0                       # What write queue length does an incoming req see
system.mem_ctrls0.wrQLenPdf::31                     0                       # What write queue length does an incoming req see
system.mem_ctrls0.wrQLenPdf::32                     0                       # What write queue length does an incoming req see
system.mem_ctrls0.wrQLenPdf::33                     0                       # What write queue length does an incoming req see
system.mem_ctrls0.wrQLenPdf::34                     0                       # What write queue length does an incoming req see
system.mem_ctrls0.wrQLenPdf::35                     0                       # What write queue length does an incoming req see
system.mem_ctrls0.wrQLenPdf::36                     0                       # What write queue length does an incoming req see
system.mem_ctrls0.wrQLenPdf::37                     0                       # What write queue length does an incoming req see
system.mem_ctrls0.wrQLenPdf::38                     0                       # What write queue length does an incoming req see
system.mem_ctrls0.wrQLenPdf::39                     0                       # What write queue length does an incoming req see
system.mem_ctrls0.wrQLenPdf::40                     0                       # What write queue length does an incoming req see
system.mem_ctrls0.wrQLenPdf::41                     0                       # What write queue length does an incoming req see
system.mem_ctrls0.wrQLenPdf::42                     0                       # What write queue length does an incoming req see
system.mem_ctrls0.wrQLenPdf::43                     0                       # What write queue length does an incoming req see
system.mem_ctrls0.wrQLenPdf::44                     0                       # What write queue length does an incoming req see
system.mem_ctrls0.wrQLenPdf::45                     0                       # What write queue length does an incoming req see
system.mem_ctrls0.wrQLenPdf::46                     0                       # What write queue length does an incoming req see
system.mem_ctrls0.wrQLenPdf::47                     0                       # What write queue length does an incoming req see
system.mem_ctrls0.wrQLenPdf::48                     0                       # What write queue length does an incoming req see
system.mem_ctrls0.wrQLenPdf::49                     0                       # What write queue length does an incoming req see
system.mem_ctrls0.wrQLenPdf::50                     0                       # What write queue length does an incoming req see
system.mem_ctrls0.wrQLenPdf::51                     0                       # What write queue length does an incoming req see
system.mem_ctrls0.wrQLenPdf::52                     0                       # What write queue length does an incoming req see
system.mem_ctrls0.wrQLenPdf::53                     0                       # What write queue length does an incoming req see
system.mem_ctrls0.wrQLenPdf::54                     0                       # What write queue length does an incoming req see
system.mem_ctrls0.wrQLenPdf::55                     0                       # What write queue length does an incoming req see
system.mem_ctrls0.wrQLenPdf::56                     0                       # What write queue length does an incoming req see
system.mem_ctrls0.wrQLenPdf::57                     0                       # What write queue length does an incoming req see
system.mem_ctrls0.wrQLenPdf::58                     0                       # What write queue length does an incoming req see
system.mem_ctrls0.wrQLenPdf::59                     0                       # What write queue length does an incoming req see
system.mem_ctrls0.wrQLenPdf::60                     0                       # What write queue length does an incoming req see
system.mem_ctrls0.wrQLenPdf::61                     0                       # What write queue length does an incoming req see
system.mem_ctrls0.wrQLenPdf::62                     0                       # What write queue length does an incoming req see
system.mem_ctrls0.wrQLenPdf::63                     0                       # What write queue length does an incoming req see
system.mem_ctrls0.wrQLenPdf::64                     0                       # What write queue length does an incoming req see
system.mem_ctrls0.wrQLenPdf::65                     0                       # What write queue length does an incoming req see
system.mem_ctrls0.wrQLenPdf::66                     0                       # What write queue length does an incoming req see
system.mem_ctrls0.wrQLenPdf::67                     0                       # What write queue length does an incoming req see
system.mem_ctrls0.wrQLenPdf::68                     0                       # What write queue length does an incoming req see
system.mem_ctrls0.wrQLenPdf::69                     0                       # What write queue length does an incoming req see
system.mem_ctrls0.wrQLenPdf::70                     0                       # What write queue length does an incoming req see
system.mem_ctrls0.wrQLenPdf::71                     0                       # What write queue length does an incoming req see
system.mem_ctrls0.wrQLenPdf::72                     0                       # What write queue length does an incoming req see
system.mem_ctrls0.wrQLenPdf::73                     0                       # What write queue length does an incoming req see
system.mem_ctrls0.wrQLenPdf::74                     0                       # What write queue length does an incoming req see
system.mem_ctrls0.wrQLenPdf::75                     0                       # What write queue length does an incoming req see
system.mem_ctrls0.wrQLenPdf::76                     0                       # What write queue length does an incoming req see
system.mem_ctrls0.wrQLenPdf::77                     0                       # What write queue length does an incoming req see
system.mem_ctrls0.wrQLenPdf::78                     0                       # What write queue length does an incoming req see
system.mem_ctrls0.wrQLenPdf::79                     0                       # What write queue length does an incoming req see
system.mem_ctrls0.wrQLenPdf::80                     0                       # What write queue length does an incoming req see
system.mem_ctrls0.wrQLenPdf::81                     0                       # What write queue length does an incoming req see
system.mem_ctrls0.wrQLenPdf::82                     0                       # What write queue length does an incoming req see
system.mem_ctrls0.wrQLenPdf::83                     0                       # What write queue length does an incoming req see
system.mem_ctrls0.wrQLenPdf::84                     0                       # What write queue length does an incoming req see
system.mem_ctrls0.wrQLenPdf::85                     0                       # What write queue length does an incoming req see
system.mem_ctrls0.wrQLenPdf::86                     0                       # What write queue length does an incoming req see
system.mem_ctrls0.wrQLenPdf::87                     0                       # What write queue length does an incoming req see
system.mem_ctrls0.wrQLenPdf::88                     0                       # What write queue length does an incoming req see
system.mem_ctrls0.wrQLenPdf::89                     0                       # What write queue length does an incoming req see
system.mem_ctrls0.wrQLenPdf::90                     0                       # What write queue length does an incoming req see
system.mem_ctrls0.wrQLenPdf::91                     0                       # What write queue length does an incoming req see
system.mem_ctrls0.wrQLenPdf::92                     0                       # What write queue length does an incoming req see
system.mem_ctrls0.wrQLenPdf::93                     0                       # What write queue length does an incoming req see
system.mem_ctrls0.wrQLenPdf::94                     0                       # What write queue length does an incoming req see
system.mem_ctrls0.wrQLenPdf::95                     0                       # What write queue length does an incoming req see
system.mem_ctrls0.wrQLenPdf::96                     0                       # What write queue length does an incoming req see
system.mem_ctrls0.wrQLenPdf::97                     0                       # What write queue length does an incoming req see
system.mem_ctrls0.wrQLenPdf::98                     0                       # What write queue length does an incoming req see
system.mem_ctrls0.wrQLenPdf::99                     0                       # What write queue length does an incoming req see
system.mem_ctrls0.wrQLenPdf::100                    0                       # What write queue length does an incoming req see
system.mem_ctrls0.wrQLenPdf::101                    0                       # What write queue length does an incoming req see
system.mem_ctrls0.wrQLenPdf::102                    0                       # What write queue length does an incoming req see
system.mem_ctrls0.wrQLenPdf::103                    0                       # What write queue length does an incoming req see
system.mem_ctrls0.wrQLenPdf::104                    0                       # What write queue length does an incoming req see
system.mem_ctrls0.wrQLenPdf::105                    0                       # What write queue length does an incoming req see
system.mem_ctrls0.wrQLenPdf::106                    0                       # What write queue length does an incoming req see
system.mem_ctrls0.wrQLenPdf::107                    0                       # What write queue length does an incoming req see
system.mem_ctrls0.wrQLenPdf::108                    0                       # What write queue length does an incoming req see
system.mem_ctrls0.wrQLenPdf::109                    0                       # What write queue length does an incoming req see
system.mem_ctrls0.wrQLenPdf::110                    0                       # What write queue length does an incoming req see
system.mem_ctrls0.wrQLenPdf::111                    0                       # What write queue length does an incoming req see
system.mem_ctrls0.wrQLenPdf::112                    0                       # What write queue length does an incoming req see
system.mem_ctrls0.wrQLenPdf::113                    0                       # What write queue length does an incoming req see
system.mem_ctrls0.wrQLenPdf::114                    0                       # What write queue length does an incoming req see
system.mem_ctrls0.wrQLenPdf::115                    0                       # What write queue length does an incoming req see
system.mem_ctrls0.wrQLenPdf::116                    0                       # What write queue length does an incoming req see
system.mem_ctrls0.wrQLenPdf::117                    0                       # What write queue length does an incoming req see
system.mem_ctrls0.wrQLenPdf::118                    0                       # What write queue length does an incoming req see
system.mem_ctrls0.wrQLenPdf::119                    0                       # What write queue length does an incoming req see
system.mem_ctrls0.wrQLenPdf::120                    0                       # What write queue length does an incoming req see
system.mem_ctrls0.wrQLenPdf::121                    0                       # What write queue length does an incoming req see
system.mem_ctrls0.wrQLenPdf::122                    0                       # What write queue length does an incoming req see
system.mem_ctrls0.wrQLenPdf::123                    0                       # What write queue length does an incoming req see
system.mem_ctrls0.wrQLenPdf::124                    0                       # What write queue length does an incoming req see
system.mem_ctrls0.wrQLenPdf::125                    0                       # What write queue length does an incoming req see
system.mem_ctrls0.wrQLenPdf::126                    0                       # What write queue length does an incoming req see
system.mem_ctrls0.wrQLenPdf::127                    0                       # What write queue length does an incoming req see
system.mem_ctrls0.bytesPerActivate::samples            2                       # Bytes accessed per row activation
system.mem_ctrls0.bytesPerActivate::mean          128                       # Bytes accessed per row activation
system.mem_ctrls0.bytesPerActivate::gmean   110.851252                       # Bytes accessed per row activation
system.mem_ctrls0.bytesPerActivate::stdev    90.509668                       # Bytes accessed per row activation
system.mem_ctrls0.bytesPerActivate::64-79            1     50.00%     50.00% # Bytes accessed per row activation
system.mem_ctrls0.bytesPerActivate::192-207            1     50.00%    100.00% # Bytes accessed per row activation
system.mem_ctrls0.bytesPerActivate::total            2                       # Bytes accessed per row activation
system.mem_ctrls0.masterReadBytes::.cpu0.inst          320                       # Per-master bytes read from memory
system.mem_ctrls0.masterReadBytes::.cpu0.data          256                       # Per-master bytes read from memory
system.mem_ctrls0.masterReadBytes::.cpu1.inst          256                       # Per-master bytes read from memory
system.mem_ctrls0.masterReadBytes::.cpu1.data          128                       # Per-master bytes read from memory
system.mem_ctrls0.masterReadBytes::.cpu2.inst          320                       # Per-master bytes read from memory
system.mem_ctrls0.masterReadBytes::.cpu2.data          256                       # Per-master bytes read from memory
system.mem_ctrls0.masterReadBytes::.cpu3.inst          320                       # Per-master bytes read from memory
system.mem_ctrls0.masterReadBytes::.cpu3.data          320                       # Per-master bytes read from memory
system.mem_ctrls0.masterReadRate::.cpu0.inst 492307692.307692289352                       # Per-master bytes read from memory rate (Bytes/sec)
system.mem_ctrls0.masterReadRate::.cpu0.data 393846153.846153855324                       # Per-master bytes read from memory rate (Bytes/sec)
system.mem_ctrls0.masterReadRate::.cpu1.inst 393846153.846153855324                       # Per-master bytes read from memory rate (Bytes/sec)
system.mem_ctrls0.masterReadRate::.cpu1.data 196923076.923076927662                       # Per-master bytes read from memory rate (Bytes/sec)
system.mem_ctrls0.masterReadRate::.cpu2.inst 492307692.307692289352                       # Per-master bytes read from memory rate (Bytes/sec)
system.mem_ctrls0.masterReadRate::.cpu2.data 393846153.846153855324                       # Per-master bytes read from memory rate (Bytes/sec)
system.mem_ctrls0.masterReadRate::.cpu3.inst 492307692.307692289352                       # Per-master bytes read from memory rate (Bytes/sec)
system.mem_ctrls0.masterReadRate::.cpu3.data 492307692.307692289352                       # Per-master bytes read from memory rate (Bytes/sec)
system.mem_ctrls0.masterReadAccesses::.cpu0.inst            5                       # Per-master read serviced memory accesses
system.mem_ctrls0.masterReadAccesses::.cpu0.data            4                       # Per-master read serviced memory accesses
system.mem_ctrls0.masterReadAccesses::.cpu1.inst            4                       # Per-master read serviced memory accesses
system.mem_ctrls0.masterReadAccesses::.cpu1.data            3                       # Per-master read serviced memory accesses
system.mem_ctrls0.masterReadAccesses::.cpu2.inst            6                       # Per-master read serviced memory accesses
system.mem_ctrls0.masterReadAccesses::.cpu2.data            4                       # Per-master read serviced memory accesses
system.mem_ctrls0.masterReadAccesses::.cpu3.inst            5                       # Per-master read serviced memory accesses
system.mem_ctrls0.masterReadAccesses::.cpu3.data            5                       # Per-master read serviced memory accesses
system.mem_ctrls0.masterReadTotalLat::.cpu0.inst       155348                       # Per-master read total memory access latency
system.mem_ctrls0.masterReadTotalLat::.cpu0.data       151952                       # Per-master read total memory access latency
system.mem_ctrls0.masterReadTotalLat::.cpu1.inst       125960                       # Per-master read total memory access latency
system.mem_ctrls0.masterReadTotalLat::.cpu1.data        64876                       # Per-master read total memory access latency
system.mem_ctrls0.masterReadTotalLat::.cpu2.inst       147384                       # Per-master read total memory access latency
system.mem_ctrls0.masterReadTotalLat::.cpu2.data       124576                       # Per-master read total memory access latency
system.mem_ctrls0.masterReadTotalLat::.cpu3.inst       176884                       # Per-master read total memory access latency
system.mem_ctrls0.masterReadTotalLat::.cpu3.data       219704                       # Per-master read total memory access latency
system.mem_ctrls0.masterReadAvgLat::.cpu0.inst     31069.60                       # Per-master read average memory access latency
system.mem_ctrls0.masterReadAvgLat::.cpu0.data     37988.00                       # Per-master read average memory access latency
system.mem_ctrls0.masterReadAvgLat::.cpu1.inst     31490.00                       # Per-master read average memory access latency
system.mem_ctrls0.masterReadAvgLat::.cpu1.data     21625.33                       # Per-master read average memory access latency
system.mem_ctrls0.masterReadAvgLat::.cpu2.inst     24564.00                       # Per-master read average memory access latency
system.mem_ctrls0.masterReadAvgLat::.cpu2.data     31144.00                       # Per-master read average memory access latency
system.mem_ctrls0.masterReadAvgLat::.cpu3.inst     35376.80                       # Per-master read average memory access latency
system.mem_ctrls0.masterReadAvgLat::.cpu3.data     43940.80                       # Per-master read average memory access latency
system.mem_ctrls0.totQLat                      559444                       # Total ticks spent queuing
system.mem_ctrls0.totMemAccLat                1166684                       # Total ticks spent from burst creation until serviced by the DRAM
system.mem_ctrls0.totBusLat                    127840                       # Total ticks spent in databus transfers
system.mem_ctrls0.avgQLat                    15540.11                       # Average queueing delay per DRAM burst
system.mem_ctrls0.avgBusLat                   3551.11                       # Average bus latency per DRAM burst
system.mem_ctrls0.avgMemAccLat               32407.89                       # Average memory access latency per DRAM burst
system.mem_ctrls0.avgRdBW                     3347.69                       # Average DRAM read bandwidth in MiByte/s
system.mem_ctrls0.avgWrBW                        0.00                       # Average achieved write bandwidth in MiByte/s
system.mem_ctrls0.avgRdBWSys                  3544.62                       # Average system read bandwidth in MiByte/s
system.mem_ctrls0.avgWrBWSys                     0.00                       # Average system write bandwidth in MiByte/s
system.mem_ctrls0.peakBW                     17021.00                       # Theoretical peak bandwidth in MiByte/s
system.mem_ctrls0.busUtil                       19.67                       # Data bus utilization in percentage
system.mem_ctrls0.busUtilRead                   19.67                       # Data bus utilization in percentage for reads
system.mem_ctrls0.busUtilWrite                   0.00                       # Data bus utilization in percentage for writes
system.mem_ctrls0.avgRdQLen                      2.53                       # Average read queue length when enqueuing
system.mem_ctrls0.avgWrQLen                      0.00                       # Average write queue length when enqueuing
system.mem_ctrls0.readRowHits                      17                       # Number of row buffer hits during reads
system.mem_ctrls0.writeRowHits                      0                       # Number of row buffer hits during writes
system.mem_ctrls0.readRowHitRate                47.22                       # Row buffer hit rate for reads
system.mem_ctrls0.writeRowHitRate                 nan                       # Row buffer hit rate for writes
system.mem_ctrls0.avgGap                     17610.67                       # Average gap between requests
system.mem_ctrls0.pageHitRate                   47.22                       # Row buffer hit rate, read and write combined
system.mem_ctrls0_0.actEnergy                       0                       # Energy for activate commands per rank (pJ)
system.mem_ctrls0_0.preEnergy                       0                       # Energy for precharge commands per rank (pJ)
system.mem_ctrls0_0.readEnergy           42593.280000                       # Energy for read commands per rank (pJ)
system.mem_ctrls0_0.writeEnergy                     0                       # Energy for write commands per rank (pJ)
system.mem_ctrls0_0.refreshEnergy                   0                       # Energy for refresh commands per rank (pJ)
system.mem_ctrls0_0.actBackEnergy        209480.880000                       # Energy for active background per rank (pJ)
system.mem_ctrls0_0.preBackEnergy         5306.112000                       # Energy for precharge background per rank (pJ)
system.mem_ctrls0_0.actPowerDownEnergy   107927.040000                       # Energy for active power-down per rank (pJ)
system.mem_ctrls0_0.prePowerDownEnergy              0                       # Energy for precharge power-down per rank (pJ)
system.mem_ctrls0_0.selfRefreshEnergy               0                       # Energy for self refresh per rank (pJ)
system.mem_ctrls0_0.totalEnergy          365307.312000                       # Total energy per rank (pJ)
system.mem_ctrls0_0.averagePower           562.011249                       # Core power per rank (mW)
system.mem_ctrls0_0.totalIdleTime              207932                       # Total Idle time Per DRAM Rank
system.mem_ctrls0_0.memoryStateTime::IDLE        12688                       # Time in different power states
system.mem_ctrls0_0.memoryStateTime::REF            0                       # Time in different power states
system.mem_ctrls0_0.memoryStateTime::SREF            0                       # Time in different power states
system.mem_ctrls0_0.memoryStateTime::PRE_PDN            0                       # Time in different power states
system.mem_ctrls0_0.memoryStateTime::ACT       356640                       # Time in different power states
system.mem_ctrls0_0.memoryStateTime::ACT_PDN       280672                       # Time in different power states
system.mem_ctrls0_1.actEnergy                       0                       # Energy for activate commands per rank (pJ)
system.mem_ctrls0_1.preEnergy             5211.360000                       # Energy for precharge commands per rank (pJ)
system.mem_ctrls0_1.readEnergy           45255.360000                       # Energy for read commands per rank (pJ)
system.mem_ctrls0_1.writeEnergy                     0                       # Energy for write commands per rank (pJ)
system.mem_ctrls0_1.refreshEnergy                   0                       # Energy for refresh commands per rank (pJ)
system.mem_ctrls0_1.actBackEnergy        202848.240000                       # Energy for active background per rank (pJ)
system.mem_ctrls0_1.preBackEnergy        47755.008000                       # Energy for precharge background per rank (pJ)
system.mem_ctrls0_1.actPowerDownEnergy   71831.040000                       # Energy for active power-down per rank (pJ)
system.mem_ctrls0_1.prePowerDownEnergy              0                       # Energy for precharge power-down per rank (pJ)
system.mem_ctrls0_1.selfRefreshEnergy               0                       # Energy for self refresh per rank (pJ)
system.mem_ctrls0_1.totalEnergy          372901.008000                       # Total energy per rank (pJ)
system.mem_ctrls0_1.averagePower           573.693858                       # Core power per rank (mW)
system.mem_ctrls0_1.totalIdleTime              186952                       # Total Idle time Per DRAM Rank
system.mem_ctrls0_1.memoryStateTime::IDLE       118352                       # Time in different power states
system.mem_ctrls0_1.memoryStateTime::REF            0                       # Time in different power states
system.mem_ctrls0_1.memoryStateTime::SREF            0                       # Time in different power states
system.mem_ctrls0_1.memoryStateTime::PRE_PDN            0                       # Time in different power states
system.mem_ctrls0_1.memoryStateTime::ACT       344696                       # Time in different power states
system.mem_ctrls0_1.memoryStateTime::ACT_PDN       186952                       # Time in different power states
system.mem_ctrls1.pwrStateResidencyTicks::UNDEFINED       650000                       # Cumulative time (in ticks) in various power states
system.mem_ctrls1.bytes_read::.cpu0.inst          320                       # Number of bytes read from this memory
system.mem_ctrls1.bytes_read::.cpu0.data          128                       # Number of bytes read from this memory
system.mem_ctrls1.bytes_read::.cpu1.inst          320                       # Number of bytes read from this memory
system.mem_ctrls1.bytes_read::.cpu1.data          192                       # Number of bytes read from this memory
system.mem_ctrls1.bytes_read::.cpu2.inst          320                       # Number of bytes read from this memory
system.mem_ctrls1.bytes_read::.cpu2.data          320                       # Number of bytes read from this memory
system.mem_ctrls1.bytes_read::.cpu3.inst          320                       # Number of bytes read from this memory
system.mem_ctrls1.bytes_read::.cpu3.data          192                       # Number of bytes read from this memory
system.mem_ctrls1.bytes_read::total              2112                       # Number of bytes read from this memory
system.mem_ctrls1.bytes_inst_read::.cpu0.inst          320                       # Number of instructions bytes read from this memory
system.mem_ctrls1.bytes_inst_read::.cpu1.inst          320                       # Number of instructions bytes read from this memory
system.mem_ctrls1.bytes_inst_read::.cpu2.inst          320                       # Number of instructions bytes read from this memory
system.mem_ctrls1.bytes_inst_read::.cpu3.inst          320                       # Number of instructions bytes read from this memory
system.mem_ctrls1.bytes_inst_read::total         1280                       # Number of instructions bytes read from this memory
system.mem_ctrls1.num_reads::.cpu0.inst             5                       # Number of read requests responded to by this memory
system.mem_ctrls1.num_reads::.cpu0.data             2                       # Number of read requests responded to by this memory
system.mem_ctrls1.num_reads::.cpu1.inst             5                       # Number of read requests responded to by this memory
system.mem_ctrls1.num_reads::.cpu1.data             3                       # Number of read requests responded to by this memory
system.mem_ctrls1.num_reads::.cpu2.inst             5                       # Number of read requests responded to by this memory
system.mem_ctrls1.num_reads::.cpu2.data             5                       # Number of read requests responded to by this memory
system.mem_ctrls1.num_reads::.cpu3.inst             5                       # Number of read requests responded to by this memory
system.mem_ctrls1.num_reads::.cpu3.data             3                       # Number of read requests responded to by this memory
system.mem_ctrls1.num_reads::total                 33                       # Number of read requests responded to by this memory
system.mem_ctrls1.bw_read::.cpu0.inst       492307692                       # Total read bandwidth from this memory (bytes/s)
system.mem_ctrls1.bw_read::.cpu0.data       196923077                       # Total read bandwidth from this memory (bytes/s)
system.mem_ctrls1.bw_read::.cpu1.inst       492307692                       # Total read bandwidth from this memory (bytes/s)
system.mem_ctrls1.bw_read::.cpu1.data       295384615                       # Total read bandwidth from this memory (bytes/s)
system.mem_ctrls1.bw_read::.cpu2.inst       492307692                       # Total read bandwidth from this memory (bytes/s)
system.mem_ctrls1.bw_read::.cpu2.data       492307692                       # Total read bandwidth from this memory (bytes/s)
system.mem_ctrls1.bw_read::.cpu3.inst       492307692                       # Total read bandwidth from this memory (bytes/s)
system.mem_ctrls1.bw_read::.cpu3.data       295384615                       # Total read bandwidth from this memory (bytes/s)
system.mem_ctrls1.bw_read::total           3249230769                       # Total read bandwidth from this memory (bytes/s)
system.mem_ctrls1.bw_inst_read::.cpu0.inst    492307692                       # Instruction read bandwidth from this memory (bytes/s)
system.mem_ctrls1.bw_inst_read::.cpu1.inst    492307692                       # Instruction read bandwidth from this memory (bytes/s)
system.mem_ctrls1.bw_inst_read::.cpu2.inst    492307692                       # Instruction read bandwidth from this memory (bytes/s)
system.mem_ctrls1.bw_inst_read::.cpu3.inst    492307692                       # Instruction read bandwidth from this memory (bytes/s)
system.mem_ctrls1.bw_inst_read::total      1969230769                       # Instruction read bandwidth from this memory (bytes/s)
system.mem_ctrls1.bw_total::.cpu0.inst      492307692                       # Total bandwidth to/from this memory (bytes/s)
system.mem_ctrls1.bw_total::.cpu0.data      196923077                       # Total bandwidth to/from this memory (bytes/s)
system.mem_ctrls1.bw_total::.cpu1.inst      492307692                       # Total bandwidth to/from this memory (bytes/s)
system.mem_ctrls1.bw_total::.cpu1.data      295384615                       # Total bandwidth to/from this memory (bytes/s)
system.mem_ctrls1.bw_total::.cpu2.inst      492307692                       # Total bandwidth to/from this memory (bytes/s)
system.mem_ctrls1.bw_total::.cpu2.data      492307692                       # Total bandwidth to/from this memory (bytes/s)
system.mem_ctrls1.bw_total::.cpu3.inst      492307692                       # Total bandwidth to/from this memory (bytes/s)
system.mem_ctrls1.bw_total::.cpu3.data      295384615                       # Total bandwidth to/from this memory (bytes/s)
system.mem_ctrls1.bw_total::total          3249230769                       # Total bandwidth to/from this memory (bytes/s)
system.mem_ctrls1.avgPriority_.cpu0.inst::samples         5.00                       # Average QoS priority value for accepted requests
system.mem_ctrls1.avgPriority_.cpu0.data::samples         5.00                       # Average QoS priority value for accepted requests
system.mem_ctrls1.avgPriority_.cpu1.inst::samples         5.00                       # Average QoS priority value for accepted requests
system.mem_ctrls1.avgPriority_.cpu1.data::samples         3.00                       # Average QoS priority value for accepted requests
system.mem_ctrls1.avgPriority_.cpu2.inst::samples         5.00                       # Average QoS priority value for accepted requests
system.mem_ctrls1.avgPriority_.cpu2.data::samples         5.00                       # Average QoS priority value for accepted requests
system.mem_ctrls1.avgPriority_.cpu3.inst::samples         5.00                       # Average QoS priority value for accepted requests
system.mem_ctrls1.avgPriority_.cpu3.data::samples         4.00                       # Average QoS priority value for accepted requests
system.mem_ctrls1.priorityMinLatency     0.000000017860                       # per QoS priority minimum request to response latency (s)
system.mem_ctrls1.priorityMaxLatency     0.000000113264                       # per QoS priority maximum request to response latency (s)
system.mem_ctrls1.numReadWriteTurnArounds            0                       # Number of turnarounds from READ to WRITE
system.mem_ctrls1.numWriteReadTurnArounds            0                       # Number of turnarounds from WRITE to READ
system.mem_ctrls1.numStayReadState                 65                       # Number of times bus staying in READ state
system.mem_ctrls1.numStayWriteState                 0                       # Number of times bus staying in WRITE state
system.mem_ctrls1.readReqs                         37                       # Number of read requests accepted
system.mem_ctrls1.writeReqs                         0                       # Number of write requests accepted
system.mem_ctrls1.readBursts                       37                       # Number of DRAM read bursts, including those serviced by the write queue
system.mem_ctrls1.writeBursts                       0                       # Number of DRAM write bursts, including those merged in the write queue
system.mem_ctrls1.bytesReadDRAM                  2304                       # Total number of bytes read from DRAM
system.mem_ctrls1.bytesReadWrQ                      0                       # Total number of bytes read from write queue
system.mem_ctrls1.bytesWritten                      0                       # Total number of bytes written to DRAM
system.mem_ctrls1.bytesReadSys                   2368                       # Total read bytes from the system interface side
system.mem_ctrls1.bytesWrittenSys                   0                       # Total written bytes from the system interface side
system.mem_ctrls1.servicedByWrQ                     0                       # Number of DRAM read bursts serviced by the write queue
system.mem_ctrls1.mergedWrBursts                    0                       # Number of DRAM write bursts merged with an existing one
system.mem_ctrls1.neitherReadNorWriteReqs            0                       # Number of requests that are neither read nor write
system.mem_ctrls1.perBankRdBursts::0                5                       # Per bank write bursts
system.mem_ctrls1.perBankRdBursts::1                2                       # Per bank write bursts
system.mem_ctrls1.perBankRdBursts::2                0                       # Per bank write bursts
system.mem_ctrls1.perBankRdBursts::3                2                       # Per bank write bursts
system.mem_ctrls1.perBankRdBursts::4                2                       # Per bank write bursts
system.mem_ctrls1.perBankRdBursts::5                0                       # Per bank write bursts
system.mem_ctrls1.perBankRdBursts::6                1                       # Per bank write bursts
system.mem_ctrls1.perBankRdBursts::7                0                       # Per bank write bursts
system.mem_ctrls1.perBankRdBursts::8                0                       # Per bank write bursts
system.mem_ctrls1.perBankRdBursts::9                0                       # Per bank write bursts
system.mem_ctrls1.perBankRdBursts::10               0                       # Per bank write bursts
system.mem_ctrls1.perBankRdBursts::11               3                       # Per bank write bursts
system.mem_ctrls1.perBankRdBursts::12               0                       # Per bank write bursts
system.mem_ctrls1.perBankRdBursts::13               0                       # Per bank write bursts
system.mem_ctrls1.perBankRdBursts::14               3                       # Per bank write bursts
system.mem_ctrls1.perBankRdBursts::15               0                       # Per bank write bursts
system.mem_ctrls1.perBankRdBursts::16               1                       # Per bank write bursts
system.mem_ctrls1.perBankRdBursts::17               0                       # Per bank write bursts
system.mem_ctrls1.perBankRdBursts::18               1                       # Per bank write bursts
system.mem_ctrls1.perBankRdBursts::19               1                       # Per bank write bursts
system.mem_ctrls1.perBankRdBursts::20               1                       # Per bank write bursts
system.mem_ctrls1.perBankRdBursts::21               3                       # Per bank write bursts
system.mem_ctrls1.perBankRdBursts::22               5                       # Per bank write bursts
system.mem_ctrls1.perBankRdBursts::23               0                       # Per bank write bursts
system.mem_ctrls1.perBankRdBursts::24               2                       # Per bank write bursts
system.mem_ctrls1.perBankRdBursts::25               0                       # Per bank write bursts
system.mem_ctrls1.perBankRdBursts::26               0                       # Per bank write bursts
system.mem_ctrls1.perBankRdBursts::27               0                       # Per bank write bursts
system.mem_ctrls1.perBankRdBursts::28               2                       # Per bank write bursts
system.mem_ctrls1.perBankRdBursts::29               0                       # Per bank write bursts
system.mem_ctrls1.perBankRdBursts::30               0                       # Per bank write bursts
system.mem_ctrls1.perBankRdBursts::31               2                       # Per bank write bursts
system.mem_ctrls1.perBankWrBursts::0                0                       # Per bank write bursts
system.mem_ctrls1.perBankWrBursts::1                0                       # Per bank write bursts
system.mem_ctrls1.perBankWrBursts::2                0                       # Per bank write bursts
system.mem_ctrls1.perBankWrBursts::3                0                       # Per bank write bursts
system.mem_ctrls1.perBankWrBursts::4                0                       # Per bank write bursts
system.mem_ctrls1.perBankWrBursts::5                0                       # Per bank write bursts
system.mem_ctrls1.perBankWrBursts::6                0                       # Per bank write bursts
system.mem_ctrls1.perBankWrBursts::7                0                       # Per bank write bursts
system.mem_ctrls1.perBankWrBursts::8                0                       # Per bank write bursts
system.mem_ctrls1.perBankWrBursts::9                0                       # Per bank write bursts
system.mem_ctrls1.perBankWrBursts::10               0                       # Per bank write bursts
system.mem_ctrls1.perBankWrBursts::11               0                       # Per bank write bursts
system.mem_ctrls1.perBankWrBursts::12               0                       # Per bank write bursts
system.mem_ctrls1.perBankWrBursts::13               0                       # Per bank write bursts
system.mem_ctrls1.perBankWrBursts::14               0                       # Per bank write bursts
system.mem_ctrls1.perBankWrBursts::15               0                       # Per bank write bursts
system.mem_ctrls1.perBankWrBursts::16               0                       # Per bank write bursts
system.mem_ctrls1.perBankWrBursts::17               0                       # Per bank write bursts
system.mem_ctrls1.perBankWrBursts::18               0                       # Per bank write bursts
system.mem_ctrls1.perBankWrBursts::19               0                       # Per bank write bursts
system.mem_ctrls1.perBankWrBursts::20               0                       # Per bank write bursts
system.mem_ctrls1.perBankWrBursts::21               0                       # Per bank write bursts
system.mem_ctrls1.perBankWrBursts::22               0                       # Per bank write bursts
system.mem_ctrls1.perBankWrBursts::23               0                       # Per bank write bursts
system.mem_ctrls1.perBankWrBursts::24               0                       # Per bank write bursts
system.mem_ctrls1.perBankWrBursts::25               0                       # Per bank write bursts
system.mem_ctrls1.perBankWrBursts::26               0                       # Per bank write bursts
system.mem_ctrls1.perBankWrBursts::27               0                       # Per bank write bursts
system.mem_ctrls1.perBankWrBursts::28               0                       # Per bank write bursts
system.mem_ctrls1.perBankWrBursts::29               0                       # Per bank write bursts
system.mem_ctrls1.perBankWrBursts::30               0                       # Per bank write bursts
system.mem_ctrls1.perBankWrBursts::31               0                       # Per bank write bursts
system.mem_ctrls1.numRdRetry                        0                       # Number of times read queue was full causing retry
system.mem_ctrls1.numWrRetry                        0                       # Number of times write queue was full causing retry
system.mem_ctrls1.totGap                       613520                       # Total gap between requests
system.mem_ctrls1.readPktSize::0                    0                       # Read request sizes (log2)
system.mem_ctrls1.readPktSize::1                    0                       # Read request sizes (log2)
system.mem_ctrls1.readPktSize::2                    0                       # Read request sizes (log2)
system.mem_ctrls1.readPktSize::3                    0                       # Read request sizes (log2)
system.mem_ctrls1.readPktSize::4                    0                       # Read request sizes (log2)
system.mem_ctrls1.readPktSize::5                    0                       # Read request sizes (log2)
system.mem_ctrls1.readPktSize::6                   37                       # Read request sizes (log2)
system.mem_ctrls1.writePktSize::0                   0                       # Write request sizes (log2)
system.mem_ctrls1.writePktSize::1                   0                       # Write request sizes (log2)
system.mem_ctrls1.writePktSize::2                   0                       # Write request sizes (log2)
system.mem_ctrls1.writePktSize::3                   0                       # Write request sizes (log2)
system.mem_ctrls1.writePktSize::4                   0                       # Write request sizes (log2)
system.mem_ctrls1.writePktSize::5                   0                       # Write request sizes (log2)
system.mem_ctrls1.writePktSize::6                   0                       # Write request sizes (log2)
system.mem_ctrls1.rdQLenPdf::0                      7                       # What read queue length does an incoming req see
system.mem_ctrls1.rdQLenPdf::1                      9                       # What read queue length does an incoming req see
system.mem_ctrls1.rdQLenPdf::2                      9                       # What read queue length does an incoming req see
system.mem_ctrls1.rdQLenPdf::3                      6                       # What read queue length does an incoming req see
system.mem_ctrls1.rdQLenPdf::4                      4                       # What read queue length does an incoming req see
system.mem_ctrls1.rdQLenPdf::5                      2                       # What read queue length does an incoming req see
system.mem_ctrls1.rdQLenPdf::6                      0                       # What read queue length does an incoming req see
system.mem_ctrls1.rdQLenPdf::7                      0                       # What read queue length does an incoming req see
system.mem_ctrls1.rdQLenPdf::8                      0                       # What read queue length does an incoming req see
system.mem_ctrls1.rdQLenPdf::9                      0                       # What read queue length does an incoming req see
system.mem_ctrls1.rdQLenPdf::10                     0                       # What read queue length does an incoming req see
system.mem_ctrls1.rdQLenPdf::11                     0                       # What read queue length does an incoming req see
system.mem_ctrls1.rdQLenPdf::12                     0                       # What read queue length does an incoming req see
system.mem_ctrls1.rdQLenPdf::13                     0                       # What read queue length does an incoming req see
system.mem_ctrls1.rdQLenPdf::14                     0                       # What read queue length does an incoming req see
system.mem_ctrls1.rdQLenPdf::15                     0                       # What read queue length does an incoming req see
system.mem_ctrls1.rdQLenPdf::16                     0                       # What read queue length does an incoming req see
system.mem_ctrls1.rdQLenPdf::17                     0                       # What read queue length does an incoming req see
system.mem_ctrls1.rdQLenPdf::18                     0                       # What read queue length does an incoming req see
system.mem_ctrls1.rdQLenPdf::19                     0                       # What read queue length does an incoming req see
system.mem_ctrls1.rdQLenPdf::20                     0                       # What read queue length does an incoming req see
system.mem_ctrls1.rdQLenPdf::21                     0                       # What read queue length does an incoming req see
system.mem_ctrls1.rdQLenPdf::22                     0                       # What read queue length does an incoming req see
system.mem_ctrls1.rdQLenPdf::23                     0                       # What read queue length does an incoming req see
system.mem_ctrls1.rdQLenPdf::24                     0                       # What read queue length does an incoming req see
system.mem_ctrls1.rdQLenPdf::25                     0                       # What read queue length does an incoming req see
system.mem_ctrls1.rdQLenPdf::26                     0                       # What read queue length does an incoming req see
system.mem_ctrls1.rdQLenPdf::27                     0                       # What read queue length does an incoming req see
system.mem_ctrls1.rdQLenPdf::28                     0                       # What read queue length does an incoming req see
system.mem_ctrls1.rdQLenPdf::29                     0                       # What read queue length does an incoming req see
system.mem_ctrls1.rdQLenPdf::30                     0                       # What read queue length does an incoming req see
system.mem_ctrls1.rdQLenPdf::31                     0                       # What read queue length does an incoming req see
system.mem_ctrls1.rdQLenPdf::32                     0                       # What read queue length does an incoming req see
system.mem_ctrls1.rdQLenPdf::33                     0                       # What read queue length does an incoming req see
system.mem_ctrls1.rdQLenPdf::34                     0                       # What read queue length does an incoming req see
system.mem_ctrls1.rdQLenPdf::35                     0                       # What read queue length does an incoming req see
system.mem_ctrls1.rdQLenPdf::36                     0                       # What read queue length does an incoming req see
system.mem_ctrls1.rdQLenPdf::37                     0                       # What read queue length does an incoming req see
system.mem_ctrls1.rdQLenPdf::38                     0                       # What read queue length does an incoming req see
system.mem_ctrls1.rdQLenPdf::39                     0                       # What read queue length does an incoming req see
system.mem_ctrls1.rdQLenPdf::40                     0                       # What read queue length does an incoming req see
system.mem_ctrls1.rdQLenPdf::41                     0                       # What read queue length does an incoming req see
system.mem_ctrls1.rdQLenPdf::42                     0                       # What read queue length does an incoming req see
system.mem_ctrls1.rdQLenPdf::43                     0                       # What read queue length does an incoming req see
system.mem_ctrls1.rdQLenPdf::44                     0                       # What read queue length does an incoming req see
system.mem_ctrls1.rdQLenPdf::45                     0                       # What read queue length does an incoming req see
system.mem_ctrls1.rdQLenPdf::46                     0                       # What read queue length does an incoming req see
system.mem_ctrls1.rdQLenPdf::47                     0                       # What read queue length does an incoming req see
[...]
system.l3.demand_mshr_miss_latency::.cpu2.data       684528                       # number of demand (read+write) MSHR miss cycles
system.l3.demand_mshr_miss_latency::.cpu3.inst       732544                       # number of demand (read+write) MSHR miss cycles
system.l3.demand_mshr_miss_latency::.cpu3.data       454296                       # number of demand (read+write) MSHR miss cycles
system.l3.demand_mshr_miss_latency::total      4803976                       # number of demand (read+write) MSHR miss cycles
system.l3.overall_mshr_miss_latency::.cpu0.inst       720480                       # number of overall MSHR miss cycles
system.l3.overall_mshr_miss_latency::.cpu0.data       380536                       # number of overall MSHR miss cycles
system.l3.overall_mshr_miss_latency::.cpu1.inst       742600                       # number of overall MSHR miss cycles
system.l3.overall_mshr_miss_latency::.cpu1.data       376672                       # number of overall MSHR miss cycles
system.l3.overall_mshr_miss_latency::.cpu2.inst       712320                       # number of overall MSHR miss cycles
system.l3.overall_mshr_miss_latency::.cpu2.data       684528                       # number of overall MSHR miss cycles
system.l3.overall_mshr_miss_latency::.cpu3.inst       732544                       # number of overall MSHR miss cycles
system.l3.overall_mshr_miss_latency::.cpu3.data       454296                       # number of overall MSHR miss cycles
system.l3.overall_mshr_miss_latency::total      4803976                       # number of overall MSHR miss cycles
system.l3.ReadExReq_mshr_miss_rate::.cpu0.data            1                       # mshr miss rate for ReadExReq accesses
system.l3.ReadExReq_mshr_miss_rate::.cpu1.data            1                       # mshr miss rate for ReadExReq accesses
system.l3.ReadExReq_mshr_miss_rate::.cpu2.data            1                       # mshr miss rate for ReadExReq accesses
system.l3.ReadExReq_mshr_miss_rate::.cpu3.data            1                       # mshr miss rate for ReadExReq accesses
system.l3.ReadExReq_mshr_miss_rate::total            1                       # mshr miss rate for ReadExReq accesses
system.l3.ReadSharedReq_mshr_miss_rate::.cpu0.inst            1                       # mshr miss rate for ReadSharedReq accesses
system.l3.ReadSharedReq_mshr_miss_rate::.cpu0.data            1                       # mshr miss rate for ReadSharedReq accesses
system.l3.ReadSharedReq_mshr_miss_rate::.cpu1.inst            1                       # mshr miss rate for ReadSharedReq accesses
system.l3.ReadSharedReq_mshr_miss_rate::.cpu1.data            1                       # mshr miss rate for ReadSharedReq accesses
system.l3.ReadSharedReq_mshr_miss_rate::.cpu2.inst            1                       # mshr miss rate for ReadSharedReq accesses
system.l3.ReadSharedReq_mshr_miss_rate::.cpu2.data            1                       # mshr miss rate for ReadSharedReq accesses
system.l3.ReadSharedReq_mshr_miss_rate::.cpu3.inst            1                       # mshr miss rate for ReadSharedReq accesses
system.l3.ReadSharedReq_mshr_miss_rate::.cpu3.data            1                       # mshr miss rate for ReadSharedReq accesses
system.l3.ReadSharedReq_mshr_miss_rate::total            1                       # mshr miss rate for ReadSharedReq accesses
system.l3.demand_mshr_miss_rate::.cpu0.inst            1                       # mshr miss rate for demand accesses
system.l3.demand_mshr_miss_rate::.cpu0.data            1                       # mshr miss rate for demand accesses
system.l3.demand_mshr_miss_rate::.cpu1.inst            1                       # mshr miss rate for demand accesses
system.l3.demand_mshr_miss_rate::.cpu1.data            1                       # mshr miss rate for demand accesses
system.l3.demand_mshr_miss_rate::.cpu2.inst            1                       # mshr miss rate for demand accesses
system.l3.demand_mshr_miss_rate::.cpu2.data            1                       # mshr miss rate for demand accesses
system.l3.demand_mshr_miss_rate::.cpu3.inst            1                       # mshr miss rate for demand accesses
system.l3.demand_mshr_miss_rate::.cpu3.data            1                       # mshr miss rate for demand accesses
system.l3.demand_mshr_miss_rate::total              1                       # mshr miss rate for demand accesses
system.l3.overall_mshr_miss_rate::.cpu0.inst            1                       # mshr miss rate for overall accesses
system.l3.overall_mshr_miss_rate::.cpu0.data            1                       # mshr miss rate for overall accesses
system.l3.overall_mshr_miss_rate::.cpu1.inst            1                       # mshr miss rate for overall accesses
system.l3.overall_mshr_miss_rate::.cpu1.data            1                       # mshr miss rate for overall accesses
system.l3.overall_mshr_miss_rate::.cpu2.inst            1                       # mshr miss rate for overall accesses
system.l3.overall_mshr_miss_rate::.cpu2.data            1                       # mshr miss rate for overall accesses
system.l3.overall_mshr_miss_rate::.cpu3.inst            1                       # mshr miss rate for overall accesses
system.l3.overall_mshr_miss_rate::.cpu3.data            1                       # mshr miss rate for overall accesses
system.l3.overall_mshr_miss_rate::total             1                       # mshr miss rate for overall accesses
system.l3.ReadExReq_avg_mshr_miss_latency::.cpu0.data        59436                       # average ReadExReq mshr miss latency
system.l3.ReadExReq_avg_mshr_miss_latency::.cpu1.data        53222                       # average ReadExReq mshr miss latency
system.l3.ReadExReq_avg_mshr_miss_latency::.cpu2.data        60152                       # average ReadExReq mshr miss latency
system.l3.ReadExReq_avg_mshr_miss_latency::.cpu3.data        66908                       # average ReadExReq mshr miss latency
system.l3.ReadExReq_avg_mshr_miss_latency::total 59929.500000                       # average ReadExReq mshr miss latency
system.l3.ReadSharedReq_avg_mshr_miss_latency::.cpu0.inst        72048                       # average ReadSharedReq mshr miss latency
system.l3.ReadSharedReq_avg_mshr_miss_latency::.cpu0.data 28558.400000                       # average ReadSharedReq mshr miss latency
system.l3.ReadSharedReq_avg_mshr_miss_latency::.cpu1.inst 82511.111111                       # average ReadSharedReq mshr miss latency
system.l3.ReadSharedReq_avg_mshr_miss_latency::.cpu1.data        81892                       # average ReadSharedReq mshr miss latency
system.l3.ReadSharedReq_avg_mshr_miss_latency::.cpu2.inst 64756.363636                       # average ReadSharedReq mshr miss latency
system.l3.ReadSharedReq_avg_mshr_miss_latency::.cpu2.data 63417.142857                       # average ReadSharedReq mshr miss latency
system.l3.ReadSharedReq_avg_mshr_miss_latency::.cpu3.inst 73254.400000                       # average ReadSharedReq mshr miss latency
system.l3.ReadSharedReq_avg_mshr_miss_latency::.cpu3.data 37332.800000                       # average ReadSharedReq mshr miss latency
system.l3.ReadSharedReq_avg_mshr_miss_latency::total 65171.254237                       # average ReadSharedReq mshr miss latency
system.l3.demand_avg_mshr_miss_latency::.cpu0.inst        72048                       # average overall mshr miss latency
system.l3.demand_avg_mshr_miss_latency::.cpu0.data 42281.777778                       # average overall mshr miss latency
system.l3.demand_avg_mshr_miss_latency::.cpu1.inst 82511.111111                       # average overall mshr miss latency
system.l3.demand_avg_mshr_miss_latency::.cpu1.data 62778.666667                       # average overall mshr miss latency
system.l3.demand_avg_mshr_miss_latency::.cpu2.inst 64756.363636                       # average overall mshr miss latency
system.l3.demand_avg_mshr_miss_latency::.cpu2.data 62229.818182                       # average overall mshr miss latency
system.l3.demand_avg_mshr_miss_latency::.cpu3.inst 73254.400000                       # average overall mshr miss latency
system.l3.demand_avg_mshr_miss_latency::.cpu3.data 50477.333333                       # average overall mshr miss latency
system.l3.demand_avg_mshr_miss_latency::total 64053.013333                       # average overall mshr miss latency
system.l3.overall_avg_mshr_miss_latency::.cpu0.inst        72048                       # average overall mshr miss latency
system.l3.overall_avg_mshr_miss_latency::.cpu0.data 42281.777778                       # average overall mshr miss latency
system.l3.overall_avg_mshr_miss_latency::.cpu1.inst 82511.111111                       # average overall mshr miss latency
system.l3.overall_avg_mshr_miss_latency::.cpu1.data 62778.666667                       # average overall mshr miss latency
system.l3.overall_avg_mshr_miss_latency::.cpu2.inst 64756.363636                       # average overall mshr miss latency
system.l3.overall_avg_mshr_miss_latency::.cpu2.data 62229.818182                       # average overall mshr miss latency
system.l3.overall_avg_mshr_miss_latency::.cpu3.inst 73254.400000                       # average overall mshr miss latency
system.l3.overall_avg_mshr_miss_latency::.cpu3.data 50477.333333                       # average overall mshr miss latency
system.l3.overall_avg_mshr_miss_latency::total 64053.013333                       # average overall mshr miss latency
system.l3.replacements                              0                       # number of replacements
system.membus.snoop_filter.tot_requests            73                       # Total number of requests made to the snoop filter.
system.membus.snoop_filter.hit_single_requests            0                       # Number of requests hitting in the snoop filter with a single holder of the requested data.
system.membus.snoop_filter.hit_multi_requests            0                       # Number of requests hitting in the snoop filter with multiple (>1) holders of the requested data.
system.membus.snoop_filter.tot_snoops               0                       # Total number of snoops made to the snoop filter.
system.membus.snoop_filter.hit_single_snoops            0                       # Number of snoops hitting in the snoop filter with a single holder of the requested data.
system.membus.snoop_filter.hit_multi_snoops            0                       # Number of snoops hitting in the snoop filter with multiple (>1) holders of the requested data.
system.membus.pwrStateResidencyTicks::UNDEFINED       650000                       # Cumulative time (in ticks) in various power states
system.membus.trans_dist::ReadResp                 49                       # Transaction distribution
system.membus.trans_dist::ReadExReq                15                       # Transaction distribution
system.membus.trans_dist::ReadExResp               12                       # Transaction distribution
system.membus.trans_dist::ReadSharedReq            58                       # Transaction distribution
system.membus.pkt_count_system.l3.mem_side::system.mem_ctrls0.port           64                       # Packet count per connected master and slave (bytes)
system.membus.pkt_count_system.l3.mem_side::system.mem_ctrls1.port           70                       # Packet count per connected master and slave (bytes)
system.membus.pkt_count_system.l3.mem_side::total          134                       # Packet count per connected master and slave (bytes)
system.membus.pkt_count::total                    134                       # Packet count per connected master and slave (bytes)
system.membus.pkt_size_system.l3.mem_side::system.mem_ctrls0.port         1792                       # Cumulative packet size per connected master and slave (bytes)
system.membus.pkt_size_system.l3.mem_side::system.mem_ctrls1.port         2112                       # Cumulative packet size per connected master and slave (bytes)
system.membus.pkt_size_system.l3.mem_side::total         3904                       # Cumulative packet size per connected master and slave (bytes)
system.membus.pkt_size::total                    3904                       # Cumulative packet size per connected master and slave (bytes)
system.membus.snoops                                0                       # Total snoops (count)
system.membus.snoopTraffic                          0                       # Total snoop traffic (bytes)
system.membus.snoop_fanout::samples                73                       # Request fanout histogram
system.membus.snoop_fanout::mean                    0                       # Request fanout histogram
system.membus.snoop_fanout::stdev                   0                       # Request fanout histogram
system.membus.snoop_fanout::underflows              0      0.00%      0.00% # Request fanout histogram
system.membus.snoop_fanout::0                      73    100.00%    100.00% # Request fanout histogram
system.membus.snoop_fanout::1                       0      0.00%    100.00% # Request fanout histogram
system.membus.snoop_fanout::overflows               0      0.00%    100.00% # Request fanout histogram
system.membus.snoop_fanout::min_value               0                       # Request fanout histogram
system.membus.snoop_fanout::max_value               0                       # Request fanout histogram
system.membus.snoop_fanout::total                  73                       # Request fanout histogram
system.membus.reqLayer8.occupancy               50126                       # Layer occupancy (ticks)
system.membus.reqLayer8.utilization               7.7                       # Layer utilization (%)
system.membus.reqLayer9.occupancy               49895                       # Layer occupancy (ticks)
system.membus.reqLayer9.utilization               7.7                       # Layer utilization (%)
system.membus.respLayer1.occupancy             316028                       # Layer occupancy (ticks)
system.membus.respLayer1.utilization             48.6                       # Layer utilization (%)
system.tol3bus.snoop_filter.tot_requests           75                       # Total number of requests made to the snoop filter.
system.tol3bus.snoop_filter.hit_single_requests            0                       # Number of requests hitting in the snoop filter with a single holder of the requested data.
system.tol3bus.snoop_filter.hit_multi_requests            0                       # Number of requests hitting in the snoop filter with multiple (>1) holders of the requested data.
system.tol3bus.snoop_filter.tot_snoops              0                       # Total number of snoops made to the snoop filter.
system.tol3bus.snoop_filter.hit_single_snoops            0                       # Number of snoops hitting in the snoop filter with a single holder of the requested data.
system.tol3bus.snoop_filter.hit_multi_snoops            0                       # Number of snoops hitting in the snoop filter with multiple (>1) holders of the requested data.
system.tol3bus.pwrStateResidencyTicks::UNDEFINED       650000                       # Cumulative time (in ticks) in various power states
system.tol3bus.trans_dist::ReadResp                47                       # Transaction distribution
system.tol3bus.trans_dist::ReadExReq               16                       # Transaction distribution
system.tol3bus.trans_dist::ReadExResp              12                       # Transaction distribution
system.tol3bus.trans_dist::ReadSharedReq           59                       # Transaction distribution
system.tol3bus.pkt_count_system.cpu0.l2cache.mem_side::system.l3.cpu_side           33                       # Packet count per connected master and slave (bytes)
system.tol3bus.pkt_count_system.cpu1.l2cache.mem_side::system.l3.cpu_side           28                       # Packet count per connected master and slave (bytes)
system.tol3bus.pkt_count_system.cpu2.l2cache.mem_side::system.l3.cpu_side           40                       # Packet count per connected master and slave (bytes)
system.tol3bus.pkt_count_system.cpu3.l2cache.mem_side::system.l3.cpu_side           33                       # Packet count per connected master and slave (bytes)
system.tol3bus.pkt_count::total                   134                       # Packet count per connected master and slave (bytes)
system.tol3bus.pkt_size_system.cpu0.l2cache.mem_side::system.l3.cpu_side          896                       # Cumulative packet size per connected master and slave (bytes)
system.tol3bus.pkt_size_system.cpu1.l2cache.mem_side::system.l3.cpu_side          832                       # Cumulative packet size per connected master and slave (bytes)
system.tol3bus.pkt_size_system.cpu2.l2cache.mem_side::system.l3.cpu_side         1152                       # Cumulative packet size per connected master and slave (bytes)
system.tol3bus.pkt_size_system.cpu3.l2cache.mem_side::system.l3.cpu_side          896                       # Cumulative packet size per connected master and slave (bytes)
system.tol3bus.pkt_size::total                   3776                       # Cumulative packet size per connected master and slave (bytes)
system.tol3bus.snoops                               0                       # Total snoops (count)
system.tol3bus.snoopTraffic                         0                       # Total snoop traffic (bytes)
system.tol3bus.snoop_fanout::samples               75                       # Request fanout histogram
system.tol3bus.snoop_fanout::mean                   0                       # Request fanout histogram
system.tol3bus.snoop_fanout::stdev                  0                       # Request fanout histogram
system.tol3bus.snoop_fanout::underflows             0      0.00%      0.00% # Request fanout histogram
system.tol3bus.snoop_fanout::0                     75    100.00%    100.00% # Request fanout histogram
system.tol3bus.snoop_fanout::1                      0      0.00%    100.00% # Request fanout histogram
system.tol3bus.snoop_fanout::2                      0      0.00%    100.00% # Request fanout histogram
system.tol3bus.snoop_fanout::3                      0      0.00%    100.00% # Request fanout histogram
system.tol3bus.snoop_fanout::4                      0      0.00%    100.00% # Request fanout histogram
system.tol3bus.snoop_fanout::overflows              0      0.00%    100.00% # Request fanout histogram
system.tol3bus.snoop_fanout::min_value              0                       # Request fanout histogram
system.tol3bus.snoop_fanout::max_value              0                       # Request fanout histogram
system.tol3bus.snoop_fanout::total                 75                       # Request fanout histogram
system.tol3bus.reqLayer0.occupancy              15600                       # Layer occupancy (ticks)
system.tol3bus.reqLayer0.utilization              2.4                       # Layer utilization (%)
system.tol3bus.respLayer0.occupancy              8736                       # Layer occupancy (ticks)
system.tol3bus.respLayer0.utilization             1.3                       # Layer utilization (%)
system.tol3bus.respLayer1.occupancy              8112                       # Layer occupancy (ticks)
system.tol3bus.respLayer1.utilization             1.2                       # Layer utilization (%)
system.tol3bus.respLayer2.occupancy             11232                       # Layer occupancy (ticks)
system.tol3bus.respLayer2.utilization             1.7                       # Layer utilization (%)
system.tol3bus.respLayer3.occupancy              8736                       # Layer occupancy (ticks)
system.tol3bus.respLayer3.utilization             1.3                       # Layer utilization (%)

---------- End Simulation Statistics   ----------
